*NODE
   3000000,  0.0            ,  70.0           ,  -40.0          
   3000001,  0.0            ,  60.0           ,  -40.0          
   3000002,  0.0            ,  70.0           ,  -30.0          
   3000003,  0.0            ,  60.0           ,  -30.0          
   3000004,  0.0            ,  70.0           ,  -10.0          
   3000005,  0.0            ,  60.0           ,  -10.0          
   3000006,  0.0            ,  70.0           ,  -20.0          
   3000007,  0.0            ,  60.0           ,  -20.0          
   3000008,  0.0            ,  90.0           ,  -40.0          
   3000009,  0.0            ,  90.0           ,  -30.0          
   3000010,  0.0            ,  90.0           ,  -10.0          
   3000011,  0.0            ,  90.0           ,  -20.0          
   3000012,  0.0            ,  80.0           ,  -40.0          
   3000013,  0.0            ,  80.0           ,  -30.0          
   3000014,  0.0            ,  80.0           ,  -20.0          
   3000015,  0.0            ,  80.0           ,  -10.0          
   3000016,  0.0            ,  70.0           ,  -80.0          
   3000017,  0.0            ,  70.0           ,  -90.0          
   3000018,  0.0            ,  60.0           ,  -80.0          
   3000019,  0.0            ,  60.0           ,  -90.0          
** ... 582 like lines cut
*ELEMENT,TYPE=S4R,ELSET=cube_mesh
   3000000,   3000547,   3000548,   3000543,   3000544
   3000001,   3000548,   3000551,   3000552,   3000543
   3000002,   3000544,   3000543,   3000558,   3000559
   3000003,   3000543,   3000552,   3000557,   3000558
   3000004,   3000546,   3000547,   3000544,   3000542
   3000005,   3000542,   3000544,   3000559,   3000560
   3000006,   3000545,   3000546,   3000542,   3000541
   3000007,   3000541,   3000542,   3000560,   3000561
   3000008,   3000578,   3000545,   3000541,   3000577
   3000009,   3000577,   3000541,   3000561,   3000576
   3000010,   3000584,   3000585,   3000538,   3000540
   3000011,   3000585,   3000586,   3000549,   3000538
   3000012,   3000548,   3000547,   3000539,   3000537
   3000013,   3000537,   3000539,   3000540,   3000538
   3000014,   3000551,   3000548,   3000537,   3000550
   3000015,   3000550,   3000537,   3000538,   3000549
   3000016,   3000581,   3000582,   3000536,   3000580
   3000017,   3000582,   3000583,   3000535,   3000536
   3000018,   3000583,   3000584,   3000540,   3000535
   3000019,   3000545,   3000578,   3000579,   3000534
** ... 580 like lines cut
*SHELL SECTION, ELSET=cube_mesh, MATERIAL=Steel
1.0       ,
*NSET, NSET=accn
   3000157,
*ELSET, ELSET = _str_acou_SPOS, GENERATE
3000000,3000599,1
*Surface, NAME = str_acou, TYPE = ELEMENT
_str_acou_SPOS,SPOS
*MATERIAL, NAME=Steel
*DENSITY
7.8500E-09,0.0       
*ELASTIC, TYPE = ISOTROPIC
210000.0  ,0.3       ,0.0       
** Define a surface interaction in order to calculate AVNSQ (ERP)
*SURFACE INTERACTION, NAME = dummy_One
*CONTACT PAIR, INTERACTION = dummy_One
str_acou