1

   Abaqus 2022.HF11                                  Date 21-Aug-2024   Time 16:26:22
   For use by WOELFEL under license from Dassault Systemes or its subsidiary.

                                                                                 
  Step-1: Frequency Response                                                     
 STEP    1     INCREMENT     1     STEP TIME    0.00    


                        S T E P       1     S T E A D Y   S T A T E   A N A L Y S I S                


           Step-1: Frequency Response                                                     
          DIRECT CALCULATION WITH COMPLEX MATRICES

          FULL STRUCTURAL-ACOUSTIC COUPLING IS USED IN THIS
          FORCED RESPONSE ANALYSIS
          FREQUENCY RANGE DEFINITIONS (CYCLES/TIME)
                LOW         HIGH        POINTS        BIAS     SCALE FACTOR  TYPE OF SCALING


               500.        1.000E+03       51         1.00         1.00       Linear          

     THIS IS A LINEAR PERTURBATION STEP.
     ALL LOADS ARE DEFINED AS CHANGE IN LOAD TO THE REFERENCE STATE

          UNSYMMETRIC MATRIX STORAGE AND SOLUTION WILL BE USED

     EXTRAPOLATION WILL NOT BE USED

     CHARACTERISTIC ELEMENT LENGTH      24.9    

     DETAILS REGARDING ACTUAL SOLUTION WAVEFRONT REQUESTED

     DETAILED OUTPUT OF DIAGNOSTICS TO DATABASE REQUESTED

     PRINT OF INCREMENT NUMBER, TIME, ETC., TO THE MESSAGE FILE EVERY     1  INCREMENTS

     ELEMENT OPERATIONS WILL BE CARRIED OUT IN PARALLEL USING   4 THREADS ON 1 DOMAIN

     PARALLEL CONTACT TRACKING ENABLED


 ***WARNING: NODE NUMBER 5000788 IS NOT PART OF ANY ELEMENT CONNECTIVITY. 
             CONSEQUENTLY, ANY BOUNDARY CONDITION OR LOAD ON THIS NODE WILL BE 
             IGNORED.  IF THIS NODE IS A RIGID BODY REFERENCE NODE, THEN A 
             SURFACE ASSOCIATED WITH RIGID BODY IS NOT PART OF A CONTACT PAIR. 
             ALSO THIS NODE CAN NOT BE A PART OF A DISTRIBUTED COUPLING 
             DEFINITION ONLY. DEFINE A MASS ELEMENT, ANY TYPE OF ELEMENT AT 
             THIS NODE, OR REMOVE THIS NODE FROM THE DISTRIBUTED COUPLING 
             DEFINITION IF THIS CONSEQUENCE IS NOT DESIRED.

     COLLECTING MODEL CONSTRAINT INFORMATION FOR OVERCONSTRAINT CHECKS

     COLLECTING STEP CONSTRAINT INFORMATION FOR OVERCONSTRAINT CHECKS


          INCREMENT NUMBER    1  AT FREQUENCY (CYCLES/TIME) =   500.00000    
 
     INITIAL ELEMENT LOAD BALANCE
            DOMAIN    1     THREAD    NUMBER OF ELEMENTS
                              1            4336
                              2            4611
                              3            4416
                              4            3736
 
	UNSYMMETRIC DIRECT SPARSE SOLVER RUNNING ON
 	1 HOST:        1 MPI RANK  x 4 THREADS
 	NUMBER OF EQUATIONS:     16198
 	NUMBER OF RHS:           1
 	NUMBER OF FLOPS:         1.937e+10

     CHECK POINT  START OF SOLVER     

     CHECK POINT  END OF SOLVER       

       ELAPSED USER TIME (SEC)      =   3.2000    
       ELAPSED SYSTEM TIME (SEC)    =   1.0000    
       ELAPSED TOTAL CPU TIME (SEC) =   4.2000    
       ELAPSED WALLCLOCK TIME (SEC) =            2


          INCREMENT NUMBER    2  AT FREQUENCY (CYCLES/TIME) =   510.00000    
 
	UNSYMMETRIC DIRECT SPARSE SOLVER RUNNING ON
 	1 HOST:        1 MPI RANK  x 4 THREADS
 	NUMBER OF EQUATIONS:     16198
 	NUMBER OF RHS:           1
 	NUMBER OF FLOPS:         1.937e+10

     CHECK POINT  START OF SOLVER     

     CHECK POINT  END OF SOLVER       

       ELAPSED USER TIME (SEC)      =   1.0000    
       ELAPSED SYSTEM TIME (SEC)    =   0.0000    
       ELAPSED TOTAL CPU TIME (SEC) =   1.0000    
       ELAPSED WALLCLOCK TIME (SEC) =            1


          INCREMENT NUMBER    3  AT FREQUENCY (CYCLES/TIME) =   520.00000    
 
	UNSYMMETRIC DIRECT SPARSE SOLVER RUNNING ON
 	1 HOST:        1 MPI RANK  x 4 THREADS
 	NUMBER OF EQUATIONS:     16198
 	NUMBER OF RHS:           1
 	NUMBER OF FLOPS:         1.937e+10

     CHECK POINT  START OF SOLVER     

     CHECK POINT  END OF SOLVER       

       ELAPSED USER TIME (SEC)      =   1.0000    
       ELAPSED SYSTEM TIME (SEC)    =   0.0000    
       ELAPSED TOTAL CPU TIME (SEC) =   1.0000    
       ELAPSED WALLCLOCK TIME (SEC) =            0


          INCREMENT NUMBER    4  AT FREQUENCY (CYCLES/TIME) =   530.00000    
 
	UNSYMMETRIC DIRECT SPARSE SOLVER RUNNING ON
 	1 HOST:        1 MPI RANK  x 4 THREADS
 	NUMBER OF EQUATIONS:     16198
 	NUMBER OF RHS:           1
 	NUMBER OF FLOPS:         1.937e+10

     CHECK POINT  START OF SOLVER     

     CHECK POINT  END OF SOLVER       

       ELAPSED USER TIME (SEC)      =   1.0000    
       ELAPSED SYSTEM TIME (SEC)    =   0.0000    
       ELAPSED TOTAL CPU TIME (SEC) =   1.0000    
       ELAPSED WALLCLOCK TIME (SEC) =            0


          INCREMENT NUMBER    5  AT FREQUENCY (CYCLES/TIME) =   540.00000    
 
	UNSYMMETRIC DIRECT SPARSE SOLVER RUNNING ON
 	1 HOST:        1 MPI RANK  x 4 THREADS
 	NUMBER OF EQUATIONS:     16198
 	NUMBER OF RHS:           1
 	NUMBER OF FLOPS:         1.937e+10

     CHECK POINT  START OF SOLVER     

     CHECK POINT  END OF SOLVER       

       ELAPSED USER TIME (SEC)      =   1.1000    
       ELAPSED SYSTEM TIME (SEC)    =   0.0000    
       ELAPSED TOTAL CPU TIME (SEC) =   1.1000    
       ELAPSED WALLCLOCK TIME (SEC) =            0


          INCREMENT NUMBER    6  AT FREQUENCY (CYCLES/TIME) =   550.00000    
 
	UNSYMMETRIC DIRECT SPARSE SOLVER RUNNING ON
 	1 HOST:        1 MPI RANK  x 4 THREADS
 	NUMBER OF EQUATIONS:     16198
 	NUMBER OF RHS:           1
 	NUMBER OF FLOPS:         1.937e+10

     CHECK POINT  START OF SOLVER     

     CHECK POINT  END OF SOLVER       

       ELAPSED USER TIME (SEC)      =   1.1000    
       ELAPSED SYSTEM TIME (SEC)    =   0.0000    
       ELAPSED TOTAL CPU TIME (SEC) =   1.1000    
       ELAPSED WALLCLOCK TIME (SEC) =            0


          INCREMENT NUMBER    7  AT FREQUENCY (CYCLES/TIME) =   560.00000    
 
	UNSYMMETRIC DIRECT SPARSE SOLVER RUNNING ON
 	1 HOST:        1 MPI RANK  x 4 THREADS
 	NUMBER OF EQUATIONS:     16198
 	NUMBER OF RHS:           1
 	NUMBER OF FLOPS:         1.937e+10

     CHECK POINT  START OF SOLVER     

     CHECK POINT  END OF SOLVER       

       ELAPSED USER TIME (SEC)      =   1.1000    
       ELAPSED SYSTEM TIME (SEC)    =   0.0000    
       ELAPSED TOTAL CPU TIME (SEC) =   1.1000    
       ELAPSED WALLCLOCK TIME (SEC) =            1


          INCREMENT NUMBER    8  AT FREQUENCY (CYCLES/TIME) =   570.00000    
 
	UNSYMMETRIC DIRECT SPARSE SOLVER RUNNING ON
 	1 HOST:        1 MPI RANK  x 4 THREADS
 	NUMBER OF EQUATIONS:     16198
 	NUMBER OF RHS:           1
 	NUMBER OF FLOPS:         1.937e+10

     CHECK POINT  START OF SOLVER     

     CHECK POINT  END OF SOLVER       

       ELAPSED USER TIME (SEC)      =   1.0000    
       ELAPSED SYSTEM TIME (SEC)    =   0.0000    
       ELAPSED TOTAL CPU TIME (SEC) =   1.0000    
       ELAPSED WALLCLOCK TIME (SEC) =            0


          INCREMENT NUMBER    9  AT FREQUENCY (CYCLES/TIME) =   580.00000    
 
	UNSYMMETRIC DIRECT SPARSE SOLVER RUNNING ON
 	1 HOST:        1 MPI RANK  x 4 THREADS
 	NUMBER OF EQUATIONS:     16198
 	NUMBER OF RHS:           1
 	NUMBER OF FLOPS:         1.937e+10

     CHECK POINT  START OF SOLVER     

     CHECK POINT  END OF SOLVER       

       ELAPSED USER TIME (SEC)      =   1.1000    
       ELAPSED SYSTEM TIME (SEC)    =   0.0000    
       ELAPSED TOTAL CPU TIME (SEC) =   1.1000    
       ELAPSED WALLCLOCK TIME (SEC) =            1


          INCREMENT NUMBER   10  AT FREQUENCY (CYCLES/TIME) =   590.00000    
 
	UNSYMMETRIC DIRECT SPARSE SOLVER RUNNING ON
 	1 HOST:        1 MPI RANK  x 4 THREADS
 	NUMBER OF EQUATIONS:     16198
 	NUMBER OF RHS:           1
 	NUMBER OF FLOPS:         1.937e+10

     CHECK POINT  START OF SOLVER     

     CHECK POINT  END OF SOLVER       

       ELAPSED USER TIME (SEC)      =   1.1000    
       ELAPSED SYSTEM TIME (SEC)    =   0.0000    
       ELAPSED TOTAL CPU TIME (SEC) =   1.1000    
       ELAPSED WALLCLOCK TIME (SEC) =            0


          INCREMENT NUMBER   11  AT FREQUENCY (CYCLES/TIME) =   600.00000    
 
	UNSYMMETRIC DIRECT SPARSE SOLVER RUNNING ON
 	1 HOST:        1 MPI RANK  x 4 THREADS
 	NUMBER OF EQUATIONS:     16198
 	NUMBER OF RHS:           1
 	NUMBER OF FLOPS:         1.937e+10

     CHECK POINT  START OF SOLVER     

     CHECK POINT  END OF SOLVER       

       ELAPSED USER TIME (SEC)      =   1.1000    
       ELAPSED SYSTEM TIME (SEC)    =   0.0000    
       ELAPSED TOTAL CPU TIME (SEC) =   1.1000    
       ELAPSED WALLCLOCK TIME (SEC) =            1


          INCREMENT NUMBER   12  AT FREQUENCY (CYCLES/TIME) =   610.00000    
 
	UNSYMMETRIC DIRECT SPARSE SOLVER RUNNING ON
 	1 HOST:        1 MPI RANK  x 4 THREADS
 	NUMBER OF EQUATIONS:     16198
 	NUMBER OF RHS:           1
 	NUMBER OF FLOPS:         1.937e+10

     CHECK POINT  START OF SOLVER     

     CHECK POINT  END OF SOLVER       

       ELAPSED USER TIME (SEC)      =   1.1000    
       ELAPSED SYSTEM TIME (SEC)    =   0.0000    
       ELAPSED TOTAL CPU TIME (SEC) =   1.1000    
       ELAPSED WALLCLOCK TIME (SEC) =            0


          INCREMENT NUMBER   13  AT FREQUENCY (CYCLES/TIME) =   620.00000    
 
	UNSYMMETRIC DIRECT SPARSE SOLVER RUNNING ON
 	1 HOST:        1 MPI RANK  x 4 THREADS
 	NUMBER OF EQUATIONS:     16198
 	NUMBER OF RHS:           1
 	NUMBER OF FLOPS:         1.937e+10

     CHECK POINT  START OF SOLVER     

     CHECK POINT  END OF SOLVER       

       ELAPSED USER TIME (SEC)      =   1.1000    
       ELAPSED SYSTEM TIME (SEC)    =   0.0000    
       ELAPSED TOTAL CPU TIME (SEC) =   1.1000    
       ELAPSED WALLCLOCK TIME (SEC) =            1


          INCREMENT NUMBER   14  AT FREQUENCY (CYCLES/TIME) =   630.00000    
 
	UNSYMMETRIC DIRECT SPARSE SOLVER RUNNING ON
 	1 HOST:        1 MPI RANK  x 4 THREADS
 	NUMBER OF EQUATIONS:     16198
 	NUMBER OF RHS:           1
 	NUMBER OF FLOPS:         1.937e+10

     CHECK POINT  START OF SOLVER     

     CHECK POINT  END OF SOLVER       

       ELAPSED USER TIME (SEC)      =   1.0000    
       ELAPSED SYSTEM TIME (SEC)    =   0.0000    
       ELAPSED TOTAL CPU TIME (SEC) =   1.0000    
       ELAPSED WALLCLOCK TIME (SEC) =            0


          INCREMENT NUMBER   15  AT FREQUENCY (CYCLES/TIME) =   640.00000    
 
	UNSYMMETRIC DIRECT SPARSE SOLVER RUNNING ON
 	1 HOST:        1 MPI RANK  x 4 THREADS
 	NUMBER OF EQUATIONS:     16198
 	NUMBER OF RHS:           1
 	NUMBER OF FLOPS:         1.937e+10

     CHECK POINT  START OF SOLVER     

     CHECK POINT  END OF SOLVER       

       ELAPSED USER TIME (SEC)      =   1.0000    
       ELAPSED SYSTEM TIME (SEC)    =  0.10000    
       ELAPSED TOTAL CPU TIME (SEC) =   1.1000    
       ELAPSED WALLCLOCK TIME (SEC) =            0


          INCREMENT NUMBER   16  AT FREQUENCY (CYCLES/TIME) =   650.00000    
 
	UNSYMMETRIC DIRECT SPARSE SOLVER RUNNING ON
 	1 HOST:        1 MPI RANK  x 4 THREADS
 	NUMBER OF EQUATIONS:     16198
 	NUMBER OF RHS:           1
 	NUMBER OF FLOPS:         1.937e+10

     CHECK POINT  START OF SOLVER     

     CHECK POINT  END OF SOLVER       

       ELAPSED USER TIME (SEC)      =   1.2000    
       ELAPSED SYSTEM TIME (SEC)    =   0.0000    
       ELAPSED TOTAL CPU TIME (SEC) =   1.2000    
       ELAPSED WALLCLOCK TIME (SEC) =            0


          INCREMENT NUMBER   17  AT FREQUENCY (CYCLES/TIME) =   660.00000    
 
	UNSYMMETRIC DIRECT SPARSE SOLVER RUNNING ON
 	1 HOST:        1 MPI RANK  x 4 THREADS
 	NUMBER OF EQUATIONS:     16198
 	NUMBER OF RHS:           1
 	NUMBER OF FLOPS:         1.937e+10

     CHECK POINT  START OF SOLVER     

     CHECK POINT  END OF SOLVER       

       ELAPSED USER TIME (SEC)      =   1.1000    
       ELAPSED SYSTEM TIME (SEC)    =   0.0000    
       ELAPSED TOTAL CPU TIME (SEC) =   1.1000    
       ELAPSED WALLCLOCK TIME (SEC) =            0


          INCREMENT NUMBER   18  AT FREQUENCY (CYCLES/TIME) =   670.00000    
 
	UNSYMMETRIC DIRECT SPARSE SOLVER RUNNING ON
 	1 HOST:        1 MPI RANK  x 4 THREADS
 	NUMBER OF EQUATIONS:     16198
 	NUMBER OF RHS:           1
 	NUMBER OF FLOPS:         1.937e+10

     CHECK POINT  START OF SOLVER     

     CHECK POINT  END OF SOLVER       

       ELAPSED USER TIME (SEC)      =   1.1000    
       ELAPSED SYSTEM TIME (SEC)    =   0.0000    
       ELAPSED TOTAL CPU TIME (SEC) =   1.1000    
       ELAPSED WALLCLOCK TIME (SEC) =            1


          INCREMENT NUMBER   19  AT FREQUENCY (CYCLES/TIME) =   680.00000    
 
	UNSYMMETRIC DIRECT SPARSE SOLVER RUNNING ON
 	1 HOST:        1 MPI RANK  x 4 THREADS
 	NUMBER OF EQUATIONS:     16198
 	NUMBER OF RHS:           1
 	NUMBER OF FLOPS:         1.937e+10

     CHECK POINT  START OF SOLVER     

     CHECK POINT  END OF SOLVER       

       ELAPSED USER TIME (SEC)      =   1.2000    
       ELAPSED SYSTEM TIME (SEC)    =   0.0000    
       ELAPSED TOTAL CPU TIME (SEC) =   1.2000    
       ELAPSED WALLCLOCK TIME (SEC) =            0


          INCREMENT NUMBER   20  AT FREQUENCY (CYCLES/TIME) =   690.00000    
 
	UNSYMMETRIC DIRECT SPARSE SOLVER RUNNING ON
 	1 HOST:        1 MPI RANK  x 4 THREADS
 	NUMBER OF EQUATIONS:     16198
 	NUMBER OF RHS:           1
 	NUMBER OF FLOPS:         1.937e+10

     CHECK POINT  START OF SOLVER     

     CHECK POINT  END OF SOLVER       

       ELAPSED USER TIME (SEC)      =   1.1000    
       ELAPSED SYSTEM TIME (SEC)    =  0.10000    
       ELAPSED TOTAL CPU TIME (SEC) =   1.2000    
       ELAPSED WALLCLOCK TIME (SEC) =            1


          INCREMENT NUMBER   21  AT FREQUENCY (CYCLES/TIME) =   700.00000    
 
	UNSYMMETRIC DIRECT SPARSE SOLVER RUNNING ON
 	1 HOST:        1 MPI RANK  x 4 THREADS
 	NUMBER OF EQUATIONS:     16198
 	NUMBER OF RHS:           1
 	NUMBER OF FLOPS:         1.937e+10

     CHECK POINT  START OF SOLVER     

     CHECK POINT  END OF SOLVER       

       ELAPSED USER TIME (SEC)      =   1.2000    
       ELAPSED SYSTEM TIME (SEC)    =   0.0000    
       ELAPSED TOTAL CPU TIME (SEC) =   1.2000    
       ELAPSED WALLCLOCK TIME (SEC) =            0


          INCREMENT NUMBER   22  AT FREQUENCY (CYCLES/TIME) =   710.00000    
 
	UNSYMMETRIC DIRECT SPARSE SOLVER RUNNING ON
 	1 HOST:        1 MPI RANK  x 4 THREADS
 	NUMBER OF EQUATIONS:     16198
 	NUMBER OF RHS:           1
 	NUMBER OF FLOPS:         1.937e+10

     CHECK POINT  START OF SOLVER     

     CHECK POINT  END OF SOLVER       

       ELAPSED USER TIME (SEC)      =   1.0000    
       ELAPSED SYSTEM TIME (SEC)    =  0.10000    
       ELAPSED TOTAL CPU TIME (SEC) =   1.1000    
       ELAPSED WALLCLOCK TIME (SEC) =            1


          INCREMENT NUMBER   23  AT FREQUENCY (CYCLES/TIME) =   720.00000    
 
	UNSYMMETRIC DIRECT SPARSE SOLVER RUNNING ON
 	1 HOST:        1 MPI RANK  x 4 THREADS
 	NUMBER OF EQUATIONS:     16198
 	NUMBER OF RHS:           1
 	NUMBER OF FLOPS:         1.937e+10

     CHECK POINT  START OF SOLVER     

     CHECK POINT  END OF SOLVER       

       ELAPSED USER TIME (SEC)      =   1.1000    
       ELAPSED SYSTEM TIME (SEC)    =  0.10000    
       ELAPSED TOTAL CPU TIME (SEC) =   1.2000    
       ELAPSED WALLCLOCK TIME (SEC) =            0


          INCREMENT NUMBER   24  AT FREQUENCY (CYCLES/TIME) =   730.00000    
 
	UNSYMMETRIC DIRECT SPARSE SOLVER RUNNING ON
 	1 HOST:        1 MPI RANK  x 4 THREADS
 	NUMBER OF EQUATIONS:     16198
 	NUMBER OF RHS:           1
 	NUMBER OF FLOPS:         1.937e+10

     CHECK POINT  START OF SOLVER     

     CHECK POINT  END OF SOLVER       

       ELAPSED USER TIME (SEC)      =   1.1000    
       ELAPSED SYSTEM TIME (SEC)    =   0.0000    
       ELAPSED TOTAL CPU TIME (SEC) =   1.1000    
       ELAPSED WALLCLOCK TIME (SEC) =            0


          INCREMENT NUMBER   25  AT FREQUENCY (CYCLES/TIME) =   740.00000    
 
	UNSYMMETRIC DIRECT SPARSE SOLVER RUNNING ON
 	1 HOST:        1 MPI RANK  x 4 THREADS
 	NUMBER OF EQUATIONS:     16198
 	NUMBER OF RHS:           1
 	NUMBER OF FLOPS:         1.937e+10

     CHECK POINT  START OF SOLVER     

     CHECK POINT  END OF SOLVER       

       ELAPSED USER TIME (SEC)      =   1.0000    
       ELAPSED SYSTEM TIME (SEC)    =   0.0000    
       ELAPSED TOTAL CPU TIME (SEC) =   1.0000    
       ELAPSED WALLCLOCK TIME (SEC) =            0


          INCREMENT NUMBER   26  AT FREQUENCY (CYCLES/TIME) =   750.00000    
 
	UNSYMMETRIC DIRECT SPARSE SOLVER RUNNING ON
 	1 HOST:        1 MPI RANK  x 4 THREADS
 	NUMBER OF EQUATIONS:     16198
 	NUMBER OF RHS:           1
 	NUMBER OF FLOPS:         1.937e+10

     CHECK POINT  START OF SOLVER     

     CHECK POINT  END OF SOLVER       

       ELAPSED USER TIME (SEC)      =   1.0000    
       ELAPSED SYSTEM TIME (SEC)    =   0.0000    
       ELAPSED TOTAL CPU TIME (SEC) =   1.0000    
       ELAPSED WALLCLOCK TIME (SEC) =            0


          INCREMENT NUMBER   27  AT FREQUENCY (CYCLES/TIME) =   760.00000    
 
	UNSYMMETRIC DIRECT SPARSE SOLVER RUNNING ON
 	1 HOST:        1 MPI RANK  x 4 THREADS
 	NUMBER OF EQUATIONS:     16198
 	NUMBER OF RHS:           1
 	NUMBER OF FLOPS:         1.937e+10

     CHECK POINT  START OF SOLVER     

     CHECK POINT  END OF SOLVER       

       ELAPSED USER TIME (SEC)      =   1.1000    
       ELAPSED SYSTEM TIME (SEC)    =   0.0000    
       ELAPSED TOTAL CPU TIME (SEC) =   1.1000    
       ELAPSED WALLCLOCK TIME (SEC) =            1


          INCREMENT NUMBER   28  AT FREQUENCY (CYCLES/TIME) =   770.00000    
 
	UNSYMMETRIC DIRECT SPARSE SOLVER RUNNING ON
 	1 HOST:        1 MPI RANK  x 4 THREADS
 	NUMBER OF EQUATIONS:     16198
 	NUMBER OF RHS:           1
 	NUMBER OF FLOPS:         1.937e+10

     CHECK POINT  START OF SOLVER     

     CHECK POINT  END OF SOLVER       

       ELAPSED USER TIME (SEC)      =   1.0000    
       ELAPSED SYSTEM TIME (SEC)    =  0.10000    
       ELAPSED TOTAL CPU TIME (SEC) =   1.1000    
       ELAPSED WALLCLOCK TIME (SEC) =            0


          INCREMENT NUMBER   29  AT FREQUENCY (CYCLES/TIME) =   780.00000    
 
	UNSYMMETRIC DIRECT SPARSE SOLVER RUNNING ON
 	1 HOST:        1 MPI RANK  x 4 THREADS
 	NUMBER OF EQUATIONS:     16198
 	NUMBER OF RHS:           1
 	NUMBER OF FLOPS:         1.937e+10

     CHECK POINT  START OF SOLVER     

     CHECK POINT  END OF SOLVER       

       ELAPSED USER TIME (SEC)      =   1.1000    
       ELAPSED SYSTEM TIME (SEC)    =   0.0000    
       ELAPSED TOTAL CPU TIME (SEC) =   1.1000    
       ELAPSED WALLCLOCK TIME (SEC) =            1


          INCREMENT NUMBER   30  AT FREQUENCY (CYCLES/TIME) =   790.00000    
 
	UNSYMMETRIC DIRECT SPARSE SOLVER RUNNING ON
 	1 HOST:        1 MPI RANK  x 4 THREADS
 	NUMBER OF EQUATIONS:     16198
 	NUMBER OF RHS:           1
 	NUMBER OF FLOPS:         1.937e+10

     CHECK POINT  START OF SOLVER     

     CHECK POINT  END OF SOLVER       

       ELAPSED USER TIME (SEC)      =   1.2000    
       ELAPSED SYSTEM TIME (SEC)    =   0.0000    
       ELAPSED TOTAL CPU TIME (SEC) =   1.2000    
       ELAPSED WALLCLOCK TIME (SEC) =            0


          INCREMENT NUMBER   31  AT FREQUENCY (CYCLES/TIME) =   800.00000    
 
	UNSYMMETRIC DIRECT SPARSE SOLVER RUNNING ON
 	1 HOST:        1 MPI RANK  x 4 THREADS
 	NUMBER OF EQUATIONS:     16198
 	NUMBER OF RHS:           1
 	NUMBER OF FLOPS:         1.937e+10

     CHECK POINT  START OF SOLVER     

     CHECK POINT  END OF SOLVER       

       ELAPSED USER TIME (SEC)      =   1.1000    
       ELAPSED SYSTEM TIME (SEC)    =   0.0000    
       ELAPSED TOTAL CPU TIME (SEC) =   1.1000    
       ELAPSED WALLCLOCK TIME (SEC) =            1


          INCREMENT NUMBER   32  AT FREQUENCY (CYCLES/TIME) =   810.00000    
 
	UNSYMMETRIC DIRECT SPARSE SOLVER RUNNING ON
 	1 HOST:        1 MPI RANK  x 4 THREADS
 	NUMBER OF EQUATIONS:     16198
 	NUMBER OF RHS:           1
 	NUMBER OF FLOPS:         1.937e+10

     CHECK POINT  START OF SOLVER     

     CHECK POINT  END OF SOLVER       

       ELAPSED USER TIME (SEC)      =   1.0000    
       ELAPSED SYSTEM TIME (SEC)    =   0.0000    
       ELAPSED TOTAL CPU TIME (SEC) =   1.0000    
       ELAPSED WALLCLOCK TIME (SEC) =            0


          INCREMENT NUMBER   33  AT FREQUENCY (CYCLES/TIME) =   820.00000    
 
	UNSYMMETRIC DIRECT SPARSE SOLVER RUNNING ON
 	1 HOST:        1 MPI RANK  x 4 THREADS
 	NUMBER OF EQUATIONS:     16198
 	NUMBER OF RHS:           1
 	NUMBER OF FLOPS:         1.937e+10

     CHECK POINT  START OF SOLVER     

     CHECK POINT  END OF SOLVER       

       ELAPSED USER TIME (SEC)      =   1.2000    
       ELAPSED SYSTEM TIME (SEC)    =   0.0000    
       ELAPSED TOTAL CPU TIME (SEC) =   1.2000    
       ELAPSED WALLCLOCK TIME (SEC) =            0


          INCREMENT NUMBER   34  AT FREQUENCY (CYCLES/TIME) =   830.00000    
 
	UNSYMMETRIC DIRECT SPARSE SOLVER RUNNING ON
 	1 HOST:        1 MPI RANK  x 4 THREADS
 	NUMBER OF EQUATIONS:     16198
 	NUMBER OF RHS:           1
 	NUMBER OF FLOPS:         1.937e+10

     CHECK POINT  START OF SOLVER     

     CHECK POINT  END OF SOLVER       

       ELAPSED USER TIME (SEC)      =   1.2000    
       ELAPSED SYSTEM TIME (SEC)    =   0.0000    
       ELAPSED TOTAL CPU TIME (SEC) =   1.2000    
       ELAPSED WALLCLOCK TIME (SEC) =            0


          INCREMENT NUMBER   35  AT FREQUENCY (CYCLES/TIME) =   840.00000    
 
	UNSYMMETRIC DIRECT SPARSE SOLVER RUNNING ON
 	1 HOST:        1 MPI RANK  x 4 THREADS
 	NUMBER OF EQUATIONS:     16198
 	NUMBER OF RHS:           1
 	NUMBER OF FLOPS:         1.937e+10

     CHECK POINT  START OF SOLVER     

     CHECK POINT  END OF SOLVER       

       ELAPSED USER TIME (SEC)      =   1.2000    
       ELAPSED SYSTEM TIME (SEC)    =   0.0000    
       ELAPSED TOTAL CPU TIME (SEC) =   1.2000    
       ELAPSED WALLCLOCK TIME (SEC) =            0


          INCREMENT NUMBER   36  AT FREQUENCY (CYCLES/TIME) =   850.00000    
 
	UNSYMMETRIC DIRECT SPARSE SOLVER RUNNING ON
 	1 HOST:        1 MPI RANK  x 4 THREADS
 	NUMBER OF EQUATIONS:     16198
 	NUMBER OF RHS:           1
 	NUMBER OF FLOPS:         1.937e+10

     CHECK POINT  START OF SOLVER     

     CHECK POINT  END OF SOLVER       

       ELAPSED USER TIME (SEC)      =   1.2000    
       ELAPSED SYSTEM TIME (SEC)    =   0.0000    
       ELAPSED TOTAL CPU TIME (SEC) =   1.2000    
       ELAPSED WALLCLOCK TIME (SEC) =            1


          INCREMENT NUMBER   37  AT FREQUENCY (CYCLES/TIME) =   860.00000    
 
	UNSYMMETRIC DIRECT SPARSE SOLVER RUNNING ON
 	1 HOST:        1 MPI RANK  x 4 THREADS
 	NUMBER OF EQUATIONS:     16198
 	NUMBER OF RHS:           1
 	NUMBER OF FLOPS:         1.937e+10

     CHECK POINT  START OF SOLVER     

     CHECK POINT  END OF SOLVER       

       ELAPSED USER TIME (SEC)      =   1.1000    
       ELAPSED SYSTEM TIME (SEC)    =   0.0000    
       ELAPSED TOTAL CPU TIME (SEC) =   1.1000    
       ELAPSED WALLCLOCK TIME (SEC) =            0


          INCREMENT NUMBER   38  AT FREQUENCY (CYCLES/TIME) =   870.00000    
 
	UNSYMMETRIC DIRECT SPARSE SOLVER RUNNING ON
 	1 HOST:        1 MPI RANK  x 4 THREADS
 	NUMBER OF EQUATIONS:     16198
 	NUMBER OF RHS:           1
 	NUMBER OF FLOPS:         1.937e+10

     CHECK POINT  START OF SOLVER     

     CHECK POINT  END OF SOLVER       

       ELAPSED USER TIME (SEC)      =   1.2000    
       ELAPSED SYSTEM TIME (SEC)    =   0.0000    
       ELAPSED TOTAL CPU TIME (SEC) =   1.2000    
       ELAPSED WALLCLOCK TIME (SEC) =            1


          INCREMENT NUMBER   39  AT FREQUENCY (CYCLES/TIME) =   880.00000    
 
	UNSYMMETRIC DIRECT SPARSE SOLVER RUNNING ON
 	1 HOST:        1 MPI RANK  x 4 THREADS
 	NUMBER OF EQUATIONS:     16198
 	NUMBER OF RHS:           1
 	NUMBER OF FLOPS:         1.937e+10

     CHECK POINT  START OF SOLVER     

     CHECK POINT  END OF SOLVER       

       ELAPSED USER TIME (SEC)      =   1.1000    
       ELAPSED SYSTEM TIME (SEC)    =   0.0000    
       ELAPSED TOTAL CPU TIME (SEC) =   1.1000    
       ELAPSED WALLCLOCK TIME (SEC) =            0


          INCREMENT NUMBER   40  AT FREQUENCY (CYCLES/TIME) =   890.00000    
 
	UNSYMMETRIC DIRECT SPARSE SOLVER RUNNING ON
 	1 HOST:        1 MPI RANK  x 4 THREADS
 	NUMBER OF EQUATIONS:     16198
 	NUMBER OF RHS:           1
 	NUMBER OF FLOPS:         1.937e+10

     CHECK POINT  START OF SOLVER     

     CHECK POINT  END OF SOLVER       

       ELAPSED USER TIME (SEC)      =   1.1000    
       ELAPSED SYSTEM TIME (SEC)    =   0.0000    
       ELAPSED TOTAL CPU TIME (SEC) =   1.1000    
       ELAPSED WALLCLOCK TIME (SEC) =            0


          INCREMENT NUMBER   41  AT FREQUENCY (CYCLES/TIME) =   900.00000    
 
	UNSYMMETRIC DIRECT SPARSE SOLVER RUNNING ON
 	1 HOST:        1 MPI RANK  x 4 THREADS
 	NUMBER OF EQUATIONS:     16198
 	NUMBER OF RHS:           1
 	NUMBER OF FLOPS:         1.937e+10

     CHECK POINT  START OF SOLVER     

     CHECK POINT  END OF SOLVER       

       ELAPSED USER TIME (SEC)      =   1.1000    
       ELAPSED SYSTEM TIME (SEC)    =   0.0000    
       ELAPSED TOTAL CPU TIME (SEC) =   1.1000    
       ELAPSED WALLCLOCK TIME (SEC) =            0


          INCREMENT NUMBER   42  AT FREQUENCY (CYCLES/TIME) =   910.00000    
 
	UNSYMMETRIC DIRECT SPARSE SOLVER RUNNING ON
 	1 HOST:        1 MPI RANK  x 4 THREADS
 	NUMBER OF EQUATIONS:     16198
 	NUMBER OF RHS:           1
 	NUMBER OF FLOPS:         1.937e+10

     CHECK POINT  START OF SOLVER     

     CHECK POINT  END OF SOLVER       

       ELAPSED USER TIME (SEC)      =   1.1000    
       ELAPSED SYSTEM TIME (SEC)    =   0.0000    
       ELAPSED TOTAL CPU TIME (SEC) =   1.1000    
       ELAPSED WALLCLOCK TIME (SEC) =            0


          INCREMENT NUMBER   43  AT FREQUENCY (CYCLES/TIME) =   920.00000    
 
	UNSYMMETRIC DIRECT SPARSE SOLVER RUNNING ON
 	1 HOST:        1 MPI RANK  x 4 THREADS
 	NUMBER OF EQUATIONS:     16198
 	NUMBER OF RHS:           1
 	NUMBER OF FLOPS:         1.937e+10

     CHECK POINT  START OF SOLVER     

     CHECK POINT  END OF SOLVER       

       ELAPSED USER TIME (SEC)      =   1.1000    
       ELAPSED SYSTEM TIME (SEC)    =   0.0000    
       ELAPSED TOTAL CPU TIME (SEC) =   1.1000    
       ELAPSED WALLCLOCK TIME (SEC) =            1


          INCREMENT NUMBER   44  AT FREQUENCY (CYCLES/TIME) =   930.00000    
 
	UNSYMMETRIC DIRECT SPARSE SOLVER RUNNING ON
 	1 HOST:        1 MPI RANK  x 4 THREADS
 	NUMBER OF EQUATIONS:     16198
 	NUMBER OF RHS:           1
 	NUMBER OF FLOPS:         1.937e+10

     CHECK POINT  START OF SOLVER     

     CHECK POINT  END OF SOLVER       

       ELAPSED USER TIME (SEC)      =   1.1000    
       ELAPSED SYSTEM TIME (SEC)    =   0.0000    
       ELAPSED TOTAL CPU TIME (SEC) =   1.1000    
       ELAPSED WALLCLOCK TIME (SEC) =            0


          INCREMENT NUMBER   45  AT FREQUENCY (CYCLES/TIME) =   940.00000    
 
	UNSYMMETRIC DIRECT SPARSE SOLVER RUNNING ON
 	1 HOST:        1 MPI RANK  x 4 THREADS
 	NUMBER OF EQUATIONS:     16198
 	NUMBER OF RHS:           1
 	NUMBER OF FLOPS:         1.937e+10

     CHECK POINT  START OF SOLVER     

     CHECK POINT  END OF SOLVER       

       ELAPSED USER TIME (SEC)      =   1.1000    
       ELAPSED SYSTEM TIME (SEC)    =  0.10000    
       ELAPSED TOTAL CPU TIME (SEC) =   1.2000    
       ELAPSED WALLCLOCK TIME (SEC) =            1


          INCREMENT NUMBER   46  AT FREQUENCY (CYCLES/TIME) =   950.00000    
 
	UNSYMMETRIC DIRECT SPARSE SOLVER RUNNING ON
 	1 HOST:        1 MPI RANK  x 4 THREADS
 	NUMBER OF EQUATIONS:     16198
 	NUMBER OF RHS:           1
 	NUMBER OF FLOPS:         1.937e+10

     CHECK POINT  START OF SOLVER     

     CHECK POINT  END OF SOLVER       

       ELAPSED USER TIME (SEC)      =   1.1000    
       ELAPSED SYSTEM TIME (SEC)    =   0.0000    
       ELAPSED TOTAL CPU TIME (SEC) =   1.1000    
       ELAPSED WALLCLOCK TIME (SEC) =            0


          INCREMENT NUMBER   47  AT FREQUENCY (CYCLES/TIME) =   960.00000    
 
	UNSYMMETRIC DIRECT SPARSE SOLVER RUNNING ON
 	1 HOST:        1 MPI RANK  x 4 THREADS
 	NUMBER OF EQUATIONS:     16198
 	NUMBER OF RHS:           1
 	NUMBER OF FLOPS:         1.937e+10

     CHECK POINT  START OF SOLVER     

     CHECK POINT  END OF SOLVER       

       ELAPSED USER TIME (SEC)      =   1.2000    
       ELAPSED SYSTEM TIME (SEC)    =   0.0000    
       ELAPSED TOTAL CPU TIME (SEC) =   1.2000    
       ELAPSED WALLCLOCK TIME (SEC) =            1


          INCREMENT NUMBER   48  AT FREQUENCY (CYCLES/TIME) =   970.00000    
 
	UNSYMMETRIC DIRECT SPARSE SOLVER RUNNING ON
 	1 HOST:        1 MPI RANK  x 4 THREADS
 	NUMBER OF EQUATIONS:     16198
 	NUMBER OF RHS:           1
 	NUMBER OF FLOPS:         1.937e+10

     CHECK POINT  START OF SOLVER     

     CHECK POINT  END OF SOLVER       

       ELAPSED USER TIME (SEC)      =   1.0000    
       ELAPSED SYSTEM TIME (SEC)    =   0.0000    
       ELAPSED TOTAL CPU TIME (SEC) =   1.0000    
       ELAPSED WALLCLOCK TIME (SEC) =            0


          INCREMENT NUMBER   49  AT FREQUENCY (CYCLES/TIME) =   980.00000    
 
	UNSYMMETRIC DIRECT SPARSE SOLVER RUNNING ON
 	1 HOST:        1 MPI RANK  x 4 THREADS
 	NUMBER OF EQUATIONS:     16198
 	NUMBER OF RHS:           1
 	NUMBER OF FLOPS:         1.937e+10

     CHECK POINT  START OF SOLVER     

     CHECK POINT  END OF SOLVER       

       ELAPSED USER TIME (SEC)      =   1.1000    
       ELAPSED SYSTEM TIME (SEC)    =  0.10000    
       ELAPSED TOTAL CPU TIME (SEC) =   1.2000    
       ELAPSED WALLCLOCK TIME (SEC) =            0


          INCREMENT NUMBER   50  AT FREQUENCY (CYCLES/TIME) =   990.00000    
 
	UNSYMMETRIC DIRECT SPARSE SOLVER RUNNING ON
 	1 HOST:        1 MPI RANK  x 4 THREADS
 	NUMBER OF EQUATIONS:     16198
 	NUMBER OF RHS:           1
 	NUMBER OF FLOPS:         1.937e+10

     CHECK POINT  START OF SOLVER     

     CHECK POINT  END OF SOLVER       

       ELAPSED USER TIME (SEC)      =   1.1000    
       ELAPSED SYSTEM TIME (SEC)    =   0.0000    
       ELAPSED TOTAL CPU TIME (SEC) =   1.1000    
       ELAPSED WALLCLOCK TIME (SEC) =            1


          INCREMENT NUMBER   51  AT FREQUENCY (CYCLES/TIME) =   1000.0000    
 
	UNSYMMETRIC DIRECT SPARSE SOLVER RUNNING ON
 	1 HOST:        1 MPI RANK  x 4 THREADS
 	NUMBER OF EQUATIONS:     16198
 	NUMBER OF RHS:           1
 	NUMBER OF FLOPS:         1.937e+10

     CHECK POINT  START OF SOLVER     

     CHECK POINT  END OF SOLVER       

       ELAPSED USER TIME (SEC)      =   1.1000    
       ELAPSED SYSTEM TIME (SEC)    =   0.0000    
       ELAPSED TOTAL CPU TIME (SEC) =   1.1000    
       ELAPSED WALLCLOCK TIME (SEC) =            0


          THE ANALYSIS HAS BEEN COMPLETED



     ANALYSIS SUMMARY:
     TOTAL OF         51  INCREMENTS
                       0  CUTBACKS IN AUTOMATIC INCREMENTATION
                      51  ITERATIONS INCLUDING CONTACT ITERATIONS IF PRESENT
                      51  PASSES THROUGH THE EQUATION SOLVER OF WHICH 
                      51  INVOLVE MATRIX DECOMPOSITION, INCLUDING
                       0  DECOMPOSITION(S) OF THE MASS MATRIX
                       1  REORDERING OF EQUATIONS TO MINIMIZE WAVEFRONT
                       0  ADDITIONAL RESIDUAL EVALUATIONS FOR LINE SEARCHES
                       0  ADDITIONAL OPERATOR EVALUATIONS FOR LINE SEARCHES
                       2  WARNING MESSAGES DURING USER INPUT PROCESSING
                       1  WARNING MESSAGES DURING ANALYSIS
                       0  ANALYSIS WARNINGS ARE NUMERICAL PROBLEM MESSAGES
                       0  ANALYSIS WARNINGS ARE NEGATIVE EIGENVALUE MESSAGES
                       0  ERROR MESSAGES



     JOB TIME SUMMARY
       USER TIME (SEC)      =      85.    
       SYSTEM TIME (SEC)    =      4.1    
       TOTAL CPU TIME (SEC) =      89.    
       WALLCLOCK TIME (SEC) =           30
       MEMORY PEAK (GB)     =            0
