*NODE
   5000000,  0.0            ,  0.0            ,  -75.0          
   5000001,  25.0           ,  0.0            ,  -100.0         
   5000002,  50.0           ,  0.0            ,  -100.0         
   5000003,  75.0           ,  0.0            ,  -100.0         
   5000004,  100.0          ,  0.0            ,  -75.0          
   5000005,  100.0          ,  0.0            ,  -50.0          
   5000006,  100.0          ,  0.0            ,  -25.0          
   5000007,  75.0           ,  0.0            ,  0.0            
   5000008,  50.0           ,  0.0            ,  0.0            
   5000009,  25.0           ,  0.0            ,  0.0            
   5000010,  149.66388569696,  -10.85878790034,  -105.6067814821
   5000011,  115.49996071609,  86.084811225098,  -78.70990224302
   5000012,  116.8271328448 ,  97.860409000576,  -61.87459749892
   5000013,  -72.29171968519,  96.196750719501,  -65.39094962676
   5000014,  -32.27153426577,  -48.04069291201,  -11.04949534957
   5000015,  -32.59294214262,  -34.53293001904,  1.2736852535748
   5000016,  -19.65043017631,  49.923156741682,  -86.15849257632
   5000017,  -12.48458108656,  50.038152615433,  -109.1482824449
   5000018,  -3.659068430643,  88.618243805067,  10.187517438329
   5000019,  104.25744537042,  -69.21625018051,  -51.11864619502
** ... 3187 like lines cut
*ELEMENT,TYPE=ACIN3D4,ELSET=outer_infinite
   5017033,   5000437,   5000488,   5000493,   5000497
   5017034,   5000439,   5000437,   5000497,   5000503
   5017035,   5000441,   5000439,   5000503,   5000515
   5017036,   5000441,   5000515,   5000525,   5000516
   5017037,   5000746,   5000443,   5000675,   5000741
   5017038,   5000443,   5000444,   5000554,   5000675
   5017039,   5000751,   5000445,   5000443,   5000746
   5017040,   5000564,   5000554,   5000444,   5000446
   5017041,   5000445,   5000447,   5000444,   5000443
   5017042,   5000755,   5000448,   5000445,   5000751
   5017043,   5000771,   5000450,   5000449,   5000768
   5017044,   5000454,   5000587,   5000571,   5000453
   5017045,   5000455,   5000600,   5000587,   5000454
   5017046,   5000454,   5000665,   5000787,   5000455
   5017047,   5000571,   5000557,   5000566,   5000453
   5017048,   5000455,   5000787,   5000628,   5000456
   5017049,   5000456,   5000628,   5000638,   5000457
   5017050,   5000456,   5000615,   5000600,   5000455
   5017051,   5000644,   5000452,   5000651,   5000643
   5017052,   5000460,   5000649,   5000653,   5000459
** ... 474 like lines cut
*ELEMENT,TYPE=ACIN3D3,ELSET=outer_infinite
   5017003,   5000497,   5000493,   5000502
   5017004,   5000727,   5000734,   5000738
   5017005,   5000548,   5000560,   5000544
   5017006,   5000614,   5000630,   5000624
   5017007,   5000512,   5000509,   5000292
   5017008,   5000644,   5000643,   5000634
   5017009,   5000705,   5000373,   5000703
   5017010,   5000584,   5000598,   5000605
   5017011,   5000295,   5000302,   5000297
   5017012,   5000619,   5000601,   5000609
   5017013,   5000280,   5000279,   5000281
   5017014,   5000368,   5000372,   5000370
   5017015,   5000564,   5000446,   5000577
   5017016,   5000333,   5000327,   5000332
   5017017,   5000711,   5000709,   5000720
   5017018,   5000588,   5000568,   5000581
   5017019,   5000346,   5000345,   5000366
   5017020,   5000432,   5000434,   5000288
   5017021,   5000605,   5000611,   5000594
   5017022,   5000320,   5000577,   5000321
** ... 10 like lines cut
*ELEMENT,TYPE=AC3D4,ELSET=cavity
   5000524,   5000851,   5000871,   5001634,   5000154
   5000525,   5001368,   5001391,   5001427,   5001436
   5000526,   5001925,   5000179,   5000800,   5000805
   5000527,   5002105,   5002856,   5001009,   5002649
   5000528,   5002105,   5001009,   5002856,   5000022
   5000529,   5001540,   5001395,   5001799,   5000924
   5000530,   5001540,   5001799,   5001395,   5002234
   5000531,   5000459,   5002954,   5000452,   5001943
   5000532,   5002370,   5000459,   5000452,   5001943
   5000533,   5002284,   5002291,   5002411,   5002255
   5000534,   5001540,   5001392,   5001395,   5000924
   5000535,   5002066,   5002193,   5000446,   5000147
   5000536,   5001182,   5000287,   5001183,   5001181
   5000537,   5001297,   5000771,   5002434,   5001849
   5000538,   5003048,   5001309,   5002457,   5000107
   5000539,   5001530,   5003066,   5000201,   5000241
   5000540,   5002725,   5001342,   5000514,   5001470
   5000541,   5002174,   5000112,   5000609,   5000126
   5000542,   5003117,   5002837,   5002709,   5001383
   5000543,   5000867,   5000034,   5000249,   5000242
** ... 15869 like lines cut
*ELEMENT,TYPE=AC3D5,ELSET=cavity
   5016413,   5000437,   5000497,   5000493,   5000488,   5002952
   5016414,   5000439,   5000503,   5000497,   5000437,   5002511
   5016415,   5000441,   5000515,   5000503,   5000439,   5002267
   5016416,   5000441,   5000516,   5000525,   5000515,   5002362
   5016417,   5000746,   5000741,   5000675,   5000443,   5002605
   5016418,   5000443,   5000675,   5000554,   5000444,   5002959
   5016419,   5000751,   5000746,   5000443,   5000445,   5002311
   5016420,   5000564,   5000446,   5000444,   5000554,   5002066
   5016421,   5000445,   5000443,   5000444,   5000447,   5002598
   5016422,   5000755,   5000751,   5000445,   5000448,   5002064
   5016423,   5000771,   5000768,   5000449,   5000450,   5001645
   5016424,   5000454,   5000453,   5000571,   5000587,   5002703
   5016425,   5000455,   5000454,   5000587,   5000600,   5002960
   5016426,   5000454,   5000455,   5000787,   5000665,   5003178
   5016427,   5000571,   5000453,   5000566,   5000557,   5002309
   5016428,   5000455,   5000456,   5000628,   5000787,   5001619
   5016429,   5000456,   5000457,   5000638,   5000628,   5002069
   5016430,   5000456,   5000455,   5000600,   5000615,   5003184
   5016431,   5000644,   5000643,   5000651,   5000452,   5001622
   5016432,   5000460,   5000459,   5000653,   5000649,   5002600
** ... 570 like lines cut
*SOLID SECTION, ELSET=cavity, MATERIAL=air
*SOLID SECTION, ELSET=outer_infinite, REF NODE =    5000788, MATERIAL=air
*NSET, NSET=por
   5000456,   5000508,   5000539,   5000553,   5000659,   5000764
*ELSET, ELSET = _acou_str_S1, GENERATE
5016907,5017002,1
*Surface, NAME = acou_str, TYPE = ELEMENT
_acou_str_S1,S1
*MATERIAL, NAME=air
*DENSITY
1.2200E-12,0.0       
*DAMPING, STRUCTURAL = 0.0   
*ACOUSTIC MEDIUM, BULK MODULUS
0.144     ,0.0       
