1

   Abaqus 2022.HF11                                  Date 21-Oct-2024   Time 13:09:28
   For use by WOELFEL under license from Dassault Systemes or its subsidiary.



                         The Abaqus Software is a product of:

                           Dassault Systemes SIMULIA Corp.
                           1301 Atwood Avenue, Suite 101W
                              Johnston, RI 02919, USA
 


                   The Abaqus Software is available only under license
                   from Dassault Systemes or its subsidiary and may be
                   used or reproduced only in accordance with the terms
                   of such license.
 
                          On machine KOHLSTETTERIX 
                          you are authorized to run
                          Abaqus/Foundation until 01-Jan-2025

                          Your site id is: 200000000053191 


 
                    For assistance or any other information you may
                    obtain contact information for your local office
                    from the world wide web at:

                      http://www.3ds.com/products/simulia/locations/

 
                * * * * * * * * * * * * * * * * * * * * * * * * * * * * * * 
                *                                                         * 
                *                   *****************                     * 
                *                   *  N O T I C E  *                     * 
                *                   *****************                     * 
                *                                                         * 
                *                                                         * 
                *                    Abaqus 2022.HF11                     * 
                *                                                         * 
                *       BUILD ID: 2023_10_26-15.11.10 RELr424 177048      * 
                *                                                         * 
                *                                                         * 
                *  Please make sure you are using                         * 
                *  release Abaqus 2022.HF11 manuals                       * 
                *  plus the notes accompanying this release.              * 
                *                                                         * 
                *                                                         * 
                *                                                         * 
                *                                                         * 
                * * * * * * * * * * * * * * * * * * * * * * * * * * * * * * 


 



     PROCESSING PART, INSTANCE, AND ASSEMBLY INFORMATION
   *******************************************************


     END PROCESSING PART, INSTANCE, AND ASSEMBLY INFORMATION
   ***********************************************************




     OPTIONS BEING PROCESSED
   ***************************


  *INCLUDE, INPUT ="../MODEL/cube.inp"
  *NODE
  *ELEMENT,TYPE=S3,ELSET=cube

 ***NOTE: ELEMENT TYPES S3 AND S3R ARE IDENTICAL. ELEMENT TYPE S3 WILL BE 
          REFERRED TO AS S3R FROM HERE ON
  *NSET, NSET=accn
  *NSET, NSET=cube_asi
  *ELSET, ELSET=cube_asi
  *ELSET, ELSET = _str_acou_SNEG
  *MATERIAL, NAME=steel
  *DENSITY
  *DAMPING, STRUCTURAL = 0.01
  *ELASTIC, TYPE = ISOTROPIC
  *SHELL SECTION, ELSET=cube, MATERIAL=steel
  *SHELL SECTION, ELSET=cube, MATERIAL=steel
  *Surface, NAME = str_acou, TYPE = ELEMENT
  *Surface, NAME = str_acou, TYPE = ELEMENT
  *Surface, NAME = str_acou, TYPE = ELEMENT
  *Output,field,frequency=1
  *OUTPUT, HISTORY
  *Output,field,frequency=1
  *OUTPUT, HISTORY
  *Output,field,frequency=1
  *OUTPUT, HISTORY
  *Step
  *Steady State Dynamics, direct, frequency scale=linear
  *Output,field,frequency=1
  *OUTPUT, HISTORY
  *Step
  *Step
   Step-1: Frequency Response                                                     
  *Steady State Dynamics, direct, frequency scale=linear
  *Output,field,frequency=1
  *CONTACT OUTPUT
  *Node output
  *OUTPUT, HISTORY
  *NODE OUTPUT, NSET = accn
  *NODE PRINT, NSET = cube_asi, FREQUENCY = 1
  *End step
  *Step
  *Steady State Dynamics, direct, frequency scale=linear
  *Steady State Dynamics, direct, frequency scale=linear
  *CLOAD, OP=NEW
  *End step



                            P R O B L E M   S I Z E


          NUMBER OF ELEMENTS IS                                  1200
          NUMBER OF NODES IS                                      602
          NUMBER OF NODES DEFINED BY THE USER                     602
          TOTAL NUMBER OF VARIABLES IN THE MODEL                 7224
          (DEGREES OF FREEDOM PLUS MAX NO. OF ANY LAGRANGE MULTIPLIER
           VARIABLES. INCLUDE *PRINT,SOLVE=YES TO GET THE ACTUAL NUMBER.)



                              END OF USER INPUT PROCESSING



     JOB TIME SUMMARY
       USER TIME (SEC)      =     0.20    
       SYSTEM TIME (SEC)    =     0.10    
       TOTAL CPU TIME (SEC) =     0.30    
       WALLCLOCK TIME (SEC) =            1
1

   Abaqus 2022.HF11                                  Date 21-Oct-2024   Time 13:09:31
   For use by WOELFEL under license from Dassault Systemes or its subsidiary.

                                                                                               STEP    1  INCREMENT    1
      Step-1: Frequency Response                                                          TIME COMPLETED IN THIS STEP   0.00    


                        S T E P       1     S T E A D Y   S T A T E   A N A L Y S I S                


           Step-1: Frequency Response                                                     
          DIRECT CALCULATION WITH COMPLEX MATRICES

          FULL STRUCTURAL-ACOUSTIC COUPLING IS USED IN THIS
          FORCED RESPONSE ANALYSIS
          FREQUENCY RANGE DEFINITIONS (CYCLES/TIME)
                LOW         HIGH        POINTS        BIAS     SCALE FACTOR  TYPE OF SCALING


               500.        1.000E+03       51         1.00         1.00       Linear          

     THIS IS A LINEAR PERTURBATION STEP.
     ALL LOADS ARE DEFINED AS CHANGE IN LOAD TO THE REFERENCE STATE



                    TOTAL MASS OF MODEL

                      4.7100000E-04


                    LOCATION OF THE CENTER OF MASS OF THE MODEL

                       50.00000           50.00000           50.00000    


                    MOMENTS OF INERTIA ABOUT THE ORIGIN
                           I(XX)               I(YY)               I(ZZ)

                       3.673839           3.673839           3.673839    


                    PRODUCTS OF INERTIA ABOUT THE ORIGIN
                           I(XY)               I(XZ)               I(YZ)

                      -1.177500          -1.177500          -1.178808    


                    MOMENTS OF INERTIA ABOUT THE CENTER OF MASS
                           I(XX)               I(YY)               I(ZZ)

                       1.318839           1.318839           1.318839    


                    PRODUCTS OF INERTIA ABOUT THE CENTER OF MASS
                           I(XY)               I(XZ)               I(YZ)

                      2.4424907E-14      2.6423308E-14     -1.3083333E-03
  
                   M E M O R Y   E S T I M A T E
  
 PROCESS      FLOATING PT       MINIMUM MEMORY        MEMORY TO
              OPERATIONS           REQUIRED          MINIMIZE I/O
             PER ITERATION           (MB)               (MB)
  
     1          6.42E+08               19                 51
  
 NOTE:
      (1) SINCE ABAQUS DOES NOT PRE-ALLOCATE MEMORY AND ONLY ALLOCATES MEMORY AS NEEDED DURING THE ANALYSIS,
          THE MEMORY REQUIREMENT PRINTED HERE CAN ONLY BE VIEWED AS A GENERAL GUIDELINE BASED ON THE BEST
          KNOWLEDGE AVAILABLE AT THE BEGINNING OF A STEP BEFORE THE SOLUTION PROCESS HAS BEGUN.
      (2) THE ESTIMATE IS NORMALLY UPDATED AT THE BEGINNING OF EVERY STEP. IT IS THE MAXIMUM VALUE OF THE
          ESTIMATE FROM THE CURRENT STEP TO THE LAST STEP OF THE ANALYSIS, WITH UNSYMMETRIC SOLUTION TAKEN
          INTO ACCOUNT IF APPLICABLE. 
      (3) SINCE THE ESTIMATE IS BASED ON THE ACTIVE DEGREES OF FREEDOM IN THE FIRST ITERATION OF THE 
          CURRENT STEP, THE MEMORY ESTIMATE MIGHT BE SIGNIFICANTLY DIFFERENT THAN ACTUAL USAGE FOR 
          PROBLEMS WITH SUBSTANTIAL CHANGES IN ACTIVE DEGREES OF FREEDOM BETWEEN STEPS (OR EVEN WITHIN
          THE SAME STEP). EXAMPLES ARE: PROBLEMS WITH SIGNIFICANT CONTACT CHANGES, PROBLEMS WITH MODEL
          CHANGE, PROBLEMS WITH BOTH STATIC STEP AND STEADY STATE DYNAMIC PROCEDURES WHERE ACOUSTIC 
          ELEMENTS WILL ONLY BE ACTIVATED IN THE STEADY STATE DYNAMIC STEPS.
      (4) FOR MULTI-PROCESS EXECUTION, THE ESTIMATED VALUE OF FLOATING POINT OPERATIONS FOR EACH PROCESS
          IS BASED ON AN INITIAL SCHEDULING OF OPERATIONS AND MIGHT NOT REFLECT THE ACTUAL FLOATING 
          POINT OPERATIONS COMPLETED ON EACH PROCESS. OPERATIONS ARE DYNAMICALLY BALANCED DURING EXECUTION, 
          SO THE ACTUAL BALANCE OF OPERATIONS BETWEEN PROCESSES IS EXPECTED TO BE BETTER THAN THE ESTIMATE
          PRINTED HERE.
      (5) THE UPPER LIMIT OF MEMORY THAT CAN BE ALLOCATED BY ABAQUS WILL IN GENERAL DEPEND ON THE VALUE OF
          THE "MEMORY" PARAMETER AND THE AMOUNT OF PHYSICAL MEMORY AVAILABLE ON THE MACHINE. PLEASE SEE
          THE "ABAQUS ANALYSIS USER'S MANUAL" FOR MORE DETAILS. THE ACTUAL USAGE OF MEMORY AND OF DISK
          SPACE FOR SCRATCH DATA WILL DEPEND ON THIS UPPER LIMIT AS WELL AS THE MEMORY REQUIRED TO MINIMIZE
          I/O. IF THE MEMORY UPPER LIMIT IS GREATER THAN THE MEMORY REQUIRED TO MINIMIZE I/O, THEN THE ACTUAL
          MEMORY USAGE WILL BE CLOSE TO THE ESTIMATED "MEMORY TO MINIMIZE I/O" VALUE, AND THE SCRATCH DISK
          USAGE WILL BE CLOSE-TO-ZERO; OTHERWISE, THE ACTUAL MEMORY USED WILL BE CLOSE TO THE PREVIOUSLY
          MENTIONED MEMORY LIMIT, AND THE SCRATCH DISK USAGE WILL BE ROUGHLY PROPORTIONAL TO THE DIFFERENCE
          BETWEEN THE ESTIMATED "MEMORY TO MINIMIZE I/O" AND THE MEMORY UPPER LIMIT. HOWEVER ACCURATE
          ESTIMATE OF THE SCRATCH DISK SPACE IS NOT POSSIBLE.
      (6) USING "*RESTART, WRITE" CAN GENERATE A LARGE AMOUNT OF DATA WRITTEN IN THE WORK DIRECTORY.


          INCREMENT NUMBER    1  AT FREQUENCY (CYCLES/TIME) =   500.00000    
  
  
  
  
                                       N O D E   O U T P U T
  
  
  
  
   THE FOLLOWING TABLE IS PRINTED FOR NODES BELONGING TO NODE SET CUBE_ASI
  
       NODE FOOT-  V1             V2             V3             VR1            VR2            VR3          
            NOTE
  
      1001     -1.1694828E+00 -3.0538530E-02  1.9332639E-02  1.1390007E-02  3.4576195E-02 -3.1207633E-02 
      1001 SSD -1.4177150E+02 -1.1399982E+00  8.5125706E-01  5.2328911E-01  1.4820783E+00 -1.4361861E+00 
      1002     -1.1611110E+00 -3.8535287E-02  1.7474273E-02  3.5280692E-02 -4.3714588E-04  1.0463412E-01 
      1002 SSD -1.4137057E+02 -1.3982793E+00  7.9706407E-01  1.6431818E+00  2.1274092E-01  4.6347430E+00 
      1003     -1.1497589E+00 -2.3201719E-02  1.9598593E-02  1.1826444E-02  1.8182699E-03  3.1611346E-01 
      1003 SSD -1.4092615E+02 -8.0132301E-01  8.7475937E-01  6.1009315E-01  1.8479402E-01  1.4186986E+01 
      1004     -1.1479227E+00 -1.8698202E-02  1.9210287E-02  6.9197457E-03 -8.9536212E-03  5.1195243E-01 
      1004 SSD -1.4076810E+02 -6.2781597E-01  8.6574082E-01  4.4459299E-01 -2.6555251E-01  2.3247659E+01 
      1005     -1.1440658E+00 -1.1747436E-02  1.9514817E-02 -3.8198670E-04 -1.4851267E-02  6.4987043E-01 
      1005 SSD -1.4056991E+02 -3.6701106E-01  8.8385561E-01  8.8634184E-02 -7.4415817E-01  2.9797987E+01 
      1006     -1.1425295E+00 -4.8663696E-03  1.9848486E-02 -8.9056364E-03 -1.5792152E-02  6.8918586E-01 
      1006 SSD -1.4046628E+02 -9.1701706E-02  9.1038491E-01 -3.7013631E-01 -8.5531384E-01  3.1751748E+01 
      1007     -1.1448611E+00  1.4615697E-03  1.9951500E-02 -1.3799956E-02 -1.1973045E-02  6.2395290E-01 
      1007 SSD -1.4057282E+02  1.9608624E-01  9.2686005E-01 -7.0167982E-01 -6.4515250E-01  2.8633516E+01 
      1008     -1.1509453E+00  6.0692677E-03  1.9648387E-02 -1.5640994E-02 -6.4796191E-03  4.7572482E-01 
      1008 SSD -1.4084152E+02  4.1772008E-01  9.2245723E-01 -8.0574781E-01 -3.8230071E-01  2.1679228E+01 
      1009     -1.1542347E+00  1.3740150E-02  2.0512907E-02 -9.4268961E-03 -4.8414225E-03  2.8287313E-01 
      1009 SSD -1.4103441E+02  7.4075871E-01  9.5143649E-01 -5.2689738E-01 -2.5168058E-01  1.2834160E+01 
      1010     -1.1678031E+00  1.4397546E-02  2.0149700E-02 -1.2868282E-02  1.3988047E-02  9.0362849E-02 
      1010 SSD -1.4153632E+02  8.0617637E-01  9.3986486E-01 -6.6242810E-01  6.6199721E-01  4.0926106E+00 
      1011     -1.1667087E+00  2.2294970E-02  2.2455551E-02  1.6776147E-02 -3.1528701E-03 -1.7247081E-02 
      1011 SSD -1.4159096E+02  1.1253455E+00  1.0122022E+00  7.2744235E-01 -2.0874318E-01 -7.3671372E-01 
      1012     -1.1635887E+00  2.2210524E-02 -3.8413176E-02  1.1897992E-02 -3.5622844E-02  2.8992853E-02 
      1012 SSD -1.4178268E+02  1.1943383E+00 -1.5222227E+00  5.4225954E-01 -1.5286438E+00  1.3385427E+00 
      1013     -1.1548997E+00  3.0515926E-02 -3.6378815E-02  2.9787295E-02  4.8972543E-04 -1.0306587E-01 
      1013 SSD -1.4138710E+02  1.4652812E+00 -1.4622851E+00  1.4174845E+00 -2.1238646E-01 -4.5787837E+00 
      1014     -1.1435326E+00  1.7505443E-02 -3.7871883E-02  1.3398139E-02 -1.8758025E-03 -3.1394658E-01 
      1014 SSD -1.4095882E+02  9.3893808E-01 -1.5201354E+00  6.6902800E-01 -1.8803106E-01 -1.4111426E+01 
      1015     -1.1417373E+00  1.1136814E-02 -3.7446546E-02  6.5839531E-03  8.9616030E-03 -5.0972507E-01 
      1015 SSD -1.4081950E+02  7.0780011E-01 -1.5095273E+00  4.3547193E-01  2.6429155E-01 -2.3178328E+01 
      1016     -1.1377322E+00  4.8425665E-03 -3.7532518E-02 -4.7550304E-04  1.4879898E-02 -6.4710703E-01 
      1016 SSD -1.4063280E+02  4.6699209E-01 -1.5211286E+00  7.9752486E-02  7.4152722E-01 -2.9711316E+01 
      1017     -1.1360407E+00 -2.1022335E-03 -3.7754290E-02 -8.0062054E-03  1.6111939E-02 -6.8677702E-01 
      1017 SSD -1.4053982E+02  1.9230378E-01 -1.5439588E+00 -3.3753532E-01  8.6756280E-01 -3.1677576E+01 
      1018     -1.1384176E+00 -9.4281360E-03 -3.7961964E-02 -1.2618614E-02  1.1910999E-02 -6.2274247E-01 
      1018 SSD -1.4066572E+02 -1.2913954E-01 -1.5636442E+00 -6.4598779E-01  6.4310834E-01 -2.8614790E+01 
      1019     -1.1445426E+00 -1.4096205E-02 -3.7802574E-02 -1.6802286E-02  5.9641788E-03 -4.7374090E-01 
      1019 SSD -1.4095351E+02 -3.5388263E-01 -1.5640827E+00 -8.6031781E-01  3.5901393E-01 -2.1631154E+01 
      1020     -1.1472823E+00 -2.0221861E-02 -3.8499960E-02 -1.0466094E-02  5.1986240E-03 -2.7999660E-01 
      1020 SSD -1.4114450E+02 -6.2582426E-01 -1.5875067E+00 -5.7512236E-01  2.6554197E-01 -1.2739180E+01 
      1021     -1.1610751E+00 -2.2710239E-02 -3.8072423E-02 -1.0017895E-02 -1.4027087E-02 -9.0390377E-02 
      1021 SSD -1.4167130E+02 -7.5093515E-01 -1.5731814E+00 -5.4410048E-01 -6.6570414E-01 -4.1033376E+00 
      1022     -1.1597743E+00 -2.9015768E-02 -3.9907348E-02  1.2544526E-02  8.7489363E-04  1.9435154E-02 
      1022 SSD -1.4173521E+02 -1.0193044E+00 -1.6303848E+00  5.5927760E-01  1.1369015E-01  8.1878160E-01 
      1023     -1.1541633E+00 -3.0162422E-02 -3.8201154E-02  1.8241802E-02 -7.9414995E-02 -5.4344043E-03 
      1023 SSD -1.4142681E+02 -1.0734826E+00 -1.5733355E+00  9.2526270E-01 -3.6720057E+00 -3.2721599E-01 
      1024     -1.1484016E+00 -3.1143037E-02 -2.9709302E-02  1.4675717E-02 -2.6548745E-01  1.2337442E-03 
      1024 SSD -1.4113582E+02 -1.1080011E+00 -1.2002921E+00  7.2988688E-01 -1.2238817E+01  8.4232813E-02 
      1025     -1.1446571E+00 -3.1538279E-02 -2.2967010E-02  8.5225331E-03 -4.6377330E-01  6.0472932E-03 
      1025 SSD -1.4089949E+02 -1.1280155E+00 -9.4950830E-01  5.0761988E-01 -2.1336641E+01  3.6542567E-01 
      1026     -1.1408369E+00 -3.1733421E-02 -1.6419108E-02  2.1265373E-03 -6.1681364E-01  1.1172112E-02 
      1026 SSD -1.4066393E+02 -1.1454235E+00 -6.9713457E-01  1.8715170E-01 -2.8420088E+01  6.3103668E-01 
      1027     -1.1402449E+00 -3.1877162E-02 -1.0795720E-02 -4.4558246E-03 -6.8904658E-01  1.4947417E-02 
      1027 SSD -1.4058049E+02 -1.1657385E+00 -4.7607425E-01 -1.7466542E-01 -3.1712637E+01  8.3296491E-01 
      1028     -1.1421632E+00 -3.1939591E-02 -4.5369318E-03 -9.7022866E-03 -6.5981359E-01  1.2603234E-02 
      1028 SSD -1.4065238E+02 -1.1776774E+00 -1.9908957E-01 -5.2543686E-01 -3.0062594E+01  6.5006785E-01 
      1029     -1.1467429E+00 -3.1859173E-02  8.3198636E-04 -1.5171879E-02 -5.3118433E-01  7.9894924E-03 
      1029 SSD -1.4083821E+02 -1.1804598E+00  5.7309100E-02 -8.0987907E-01 -2.3789051E+01  2.4631591E-01 
      1030     -1.1509144E+00 -3.1949736E-02  6.7369766E-03 -1.0128307E-02 -3.4423678E-01 -3.1003877E-03 
      1030 SSD -1.4103927E+02 -1.1842717E+00  3.2073247E-01 -5.7398714E-01 -1.5083030E+01 -2.6098902E-01 
      1031     -1.1627829E+00 -3.1721654E-02  7.9208007E-03 -1.7522362E-02 -1.2585337E-01  1.4481201E-03 
      1031 SSD -1.4146888E+02 -1.1825930E+00  4.0173858E-01 -8.5667355E-01 -5.3237411E+00 -1.6122118E-01 
      1032     -1.1601277E+00  2.3043421E-02  1.9510269E-02  1.7708924E-02  7.9663611E-02  5.7486984E-03 
      1032 SSD -1.4130798E+02  1.1669519E+00  9.1471250E-01  9.0407182E-01  3.6794956E+00  3.3486497E-01 
      1033     -1.1526674E+00  2.3879269E-02  1.1507081E-02  1.5025631E-02  2.6692685E-01 -1.2411114E-03 
      1033 SSD -1.4102027E+02  1.1967093E+00  5.5716318E-01  7.4179549E-01  1.2282243E+01 -9.2107479E-02 
      1034     -1.1475930E+00  2.4175848E-02  4.8534205E-03  8.5014830E-03  4.6615832E-01 -5.8381108E-03 
      1034 SSD -1.4079774E+02  1.2131687E+00  3.0841102E-01  5.0644163E-01  2.1410825E+01 -3.6197316E-01 
      1035     -1.1424407E+00  2.4324805E-02 -1.5062855E-03  2.0835062E-03  6.1890904E-01 -1.1376213E-02 
      1035 SSD -1.4057759E+02  1.2285292E+00  6.1727032E-02  1.8480299E-01  2.8483238E+01 -6.4646266E-01 
      1036     -1.1402740E+00  2.4493496E-02 -6.9004832E-03 -4.5281310E-03  6.9027014E-01 -1.4398767E-02 
      1036 SSD -1.4049719E+02  1.2500742E+00 -1.4997575E-01 -1.7585512E-01  3.1756194E+01 -8.1249523E-01 
      1037     -1.1410687E+00  2.4507790E-02 -1.3045250E-02 -9.8585428E-03  6.5919029E-01 -1.3104019E-02 
      1037 SSD -1.4059674E+02  1.2599839E+00 -4.2371124E-01 -5.3371864E-01  3.0037801E+01 -6.9207323E-01 
      1038     -1.1449679E+00  2.4413897E-02 -1.8272591E-02 -1.5352461E-02  5.2844082E-01 -8.6081932E-03 
      1038 SSD -1.4081356E+02  1.2638025E+00 -6.7341021E-01 -8.1442377E-01  2.3699838E+01 -2.6142669E-01 
      1039     -1.1478016E+00  2.4466189E-02 -2.4312931E-02 -9.9095445E-03  3.4154563E-01  3.8604906E-03 
      1039 SSD -1.4102384E+02  1.2667021E+00 -9.4209255E-01 -5.6566681E-01  1.4998272E+01  2.8210729E-01 
      1040     -1.1567655E+00  2.4494512E-02 -2.4431841E-02 -1.7606759E-02  1.2490156E-01 -1.2150340E-04 
      1040 SSD -1.4141933E+02  1.2726052E+00 -9.8866872E-01 -8.6023372E-01  5.2930659E+00  2.0378206E-01 
      1041      6.7109006E+00 -4.7735816E-03  1.3831702E-02  6.8899902E-04  5.2355520E-03  9.1050335E-01 
      1041 SSD  2.3741666E+02 -6.2684901E-02  6.5278857E-01  2.8508921E-02  2.8020889E-01  4.5294273E+01 
      1042      1.5903285E+01 -4.7038792E-03  8.0971135E-03  5.9665308E-04  2.4014238E-02  9.5648794E-01 
      1042 SSD  7.0593363E+02 -3.7941432E-02  4.0934819E-01  2.5192331E-02  1.2882105E+00  5.0027509E+01 
      1043      2.4591538E+01 -4.4509460E-03  2.4100052E-03  5.8921312E-04  3.5833802E-02  8.0839813E-01 
      1043 SSD  1.1730969E+03 -1.1053866E-02  1.6728293E-01  2.4947204E-02  2.2219176E+00  4.5124555E+01 
      1044      3.0992130E+01 -4.0539887E-03 -3.2411018E-03  5.8352957E-04  3.6775308E-02  4.9102675E-01 
      1044 SSD  1.5427413E+03  1.7429635E-02 -7.3693603E-02  2.4763417E-02  2.8255730E+00  3.0195090E+01 
      1045      3.3411190E+01 -3.5817041E-03 -8.8813845E-03  5.8206341E-04 -8.3329134E-04 -1.4375886E-03 
      1045 SSD  1.6925802E+03  4.6523830E-02 -3.1415999E-01  2.4710744E-02 -2.6514445E-02 -4.5382961E-02 
      1046      3.0964672E+01 -3.1185503E-03 -1.4528417E-02  5.8401228E-04 -3.8335281E-02 -4.9363069E-01 
      1046 SSD  1.5418575E+03  7.5310265E-02 -5.5482468E-01  2.4768541E-02 -2.8744270E+00 -3.0280167E+01 
      1047      2.4545762E+01 -2.7464382E-03 -2.0203131E-02  5.9120313E-04 -3.7163454E-02 -8.0937819E-01 
      1047 SSD  1.1716025E+03  1.0297235E-01 -7.9648661E-01  2.5004284E-02 -2.2626247E+00 -4.5159227E+01 
      1048      1.5859198E+01 -2.5232209E-03 -2.5953836E-02  6.0251538E-04 -2.4767525E-02 -9.5515627E-01 
      1048 SSD  7.0443068E+02  1.2895646E-01 -1.0405103E+00  2.5367886E-02 -1.3092358E+00 -4.9994214E+01 
      1049      6.6888957E+00 -2.4763510E-03 -3.1871507E-02  6.8615778E-04 -5.1793610E-03 -9.0748324E-01 
      1049 SSD  2.3651137E+02  1.5310408E-01 -1.2898092E+00  2.8263930E-02 -2.7745233E-01 -4.5211363E+01 
      1050      3.0990778E+01  2.4138026E-03 -8.4017332E-03  5.7948324E-04  4.9071308E-01  3.6190514E-02 
      1050 SSD  1.5426512E+03  2.9975136E-01 -2.8483741E-01  2.4611837E-02  3.0194844E+01  2.8073731E+00 
      1051      2.4600369E+01  8.3020095E-03 -7.9944800E-03  5.7502936E-04  8.0698340E-01  3.5967840E-02 
      1051 SSD  1.1732151E+03  5.4882194E-01 -2.5602475E-01  2.4439120E-02  4.5090142E+01  2.2187760E+00 
      1052      1.5930319E+01  1.4039331E-02 -7.6955134E-03  5.7146111E-04  9.5464551E-01  2.6181655E-02 
      1052 SSD  7.0648935E+02  7.9250955E-01 -2.2759238E-01  2.4299204E-02  4.9987739E+01  1.3422325E+00 
      1053      6.7388697E+00  1.9653137E-02 -7.4871042E-03  6.2262101E-04  9.1218833E-01  9.0498301E-03 
      1053 SSD  2.3797226E+02  1.0327913E+00 -1.9825766E-01  2.7142748E-02  4.5336995E+01  3.7954834E-01 
      1054      2.2466039E+01  7.7211373E-03 -2.2560164E-03  5.7745729E-04  7.4611564E-01  3.7052402E-01 
      1054 SSD  1.0515378E+03  5.1980039E-01 -1.4619960E-02  2.4451494E-02  4.0751447E+01  2.0672510E+01 
      1055      1.7584743E+01  7.2581708E-03  3.6570795E-03  5.8013358E-04  5.9912640E-01  5.9918252E-01 
      1055 SSD  7.8772631E+02  4.9341638E-01  2.3030185E-01  2.4644656E-02  3.1642709E+01  3.1646114E+01 
      1056      1.1099859E+01  6.9740856E-03  9.6768434E-03  5.7706865E-04  4.0030768E-01  7.0265001E-01 
      1056 SSD  4.5310274E+02  4.7174090E-01  4.7949417E-01  2.4738501E-02  2.0404319E+01  3.5549952E+01 
      1057      4.3943384E+00  6.8784680E-03  1.5707248E-02  6.9580770E-04  1.8456595E-01  6.5311729E-01 
      1057 SSD  1.2069004E+02  4.5661354E-01  7.3444351E-01  3.2115778E-02  8.9897410E+00  3.1728032E+01 
      1058      2.2462547E+01  1.5345892E-03  3.0489751E-03  5.8432833E-04  3.7001359E-01  7.4629925E-01 
      1058 SSD  1.0514923E+03  2.4486983E-01  1.9842847E-01  2.4880612E-02  2.0667237E+01  4.0754487E+01 
      1059      2.8466389E+01  1.9163597E-03 -2.7216613E-03  5.8117494E-04  4.6102070E-01  4.6111728E-01 
      1059 SSD  1.3891261E+03  2.7107786E-01 -4.4141373E-02  2.4679574E-02  2.7232016E+01  2.7227685E+01 
      1060      1.4416689E+01  1.3394093E-03  8.8857080E-03  5.8567010E-04  2.4721507E-01  8.7969903E-01 
      1060 SSD  6.2558035E+02  2.2292359E-01  4.4332134E-01  2.5174524E-02  1.3139210E+01  4.5477354E+01 
      1061      5.9871909E+00  1.3875599E-03  1.4745241E-02  7.0510019E-04  1.1093214E-01  8.2917930E-01 
      1061 SSD  2.0006799E+02  2.0812994E-01  6.9148135E-01  3.1726197E-02  5.6107673E+00  4.0920896E+01 
      1062      4.3819171E+00  1.7962056E-02  4.4786275E-03  5.5558894E-04  6.5753320E-01  1.8571271E-01 
      1062 SSD  1.2037954E+02  9.5845708E-01  2.8353458E-01  2.0988858E-02  3.1863023E+01  9.0141329E+00 
      1063      1.1104247E+01  1.2782422E-02  4.1597731E-03  5.7399949E-04  7.0190056E-01  4.0025769E-01 
      1063 SSD  4.5326046E+02  7.3407576E-01  2.6003579E-01  2.4065261E-02  3.5519625E+01  2.0398009E+01 
      1064      5.9888790E+00  1.8860360E-02 -1.7375241E-03  5.8434642E-04  8.3217624E-01  1.1330120E-01 
      1064 SSD  2.0001468E+02  9.9866091E-01  3.7122316E-02  2.3543618E-02  4.1011157E+01  5.6550629E+00 
      1065      1.4427034E+01  1.3365399E-02 -1.9082048E-03  5.7408819E-04  8.7868571E-01  2.4808574E-01 
      1065 SSD  6.2578722E+02  7.6269021E-01  1.3347327E-02  2.4098778E-02  4.5451933E+01  1.3144571E+01 
      1066      2.4369909E-01  1.6032112E-02  1.7876348E-02  5.0419123E-04  1.9993629E-01  1.9041820E-01 
      1066 SSD -7.6743731E+01  8.7184054E-01  8.3310102E-01  2.2384816E-02  9.1728895E+00  8.8243805E+00 
      1067      2.2988286E+00  1.7049261E-02  1.1033134E-02  5.1154418E-04  4.3096360E-01  2.1658179E-01 
      1067 SSD  1.9933017E+01  9.1748894E-01  5.4218114E-01  1.9847104E-02  2.0414715E+01  1.0253790E+01 
      1068      2.3280894E+00  1.2549844E-02  1.6597266E-02  6.6592927E-04  2.1369925E-01  4.2325851E-01 
      1068 SSD  2.0873499E+01  7.0713376E-01  7.7555765E-01  3.0525901E-02  1.0130649E+01  2.0147606E+01 
      1069      6.7476508E+00  1.2439840E-02  1.0402886E-02  5.7144178E-04  4.6435819E-01  4.6496469E-01 
      1069 SSD  2.3498064E+02  7.1247022E-01  5.1371563E-01  2.4112164E-02  2.2886653E+01  2.2917512E+01 
      1070      4.9096699E+00  1.0480370E-02 -2.9765050E-02  5.6952882E-04  1.9191113E-01 -7.0942520E-01 
      1070 SSD  1.4688151E+02  6.6994053E-01 -1.2041467E+00  2.1366278E-02  9.3795908E+00 -3.4448476E+01 
      1071      1.2094277E+01  1.0293741E-02 -2.4370051E-02  5.7798342E-04  3.9710811E-01 -7.4253728E-01 
      1071 SSD  5.0452698E+02  6.5031330E-01 -9.7094702E-01  2.4307019E-02  2.0640983E+01 -3.7560125E+01 
      1072      1.8727641E+01  9.6704936E-03 -1.9015628E-02  5.7239823E-04  6.0191893E-01 -6.0629708E-01 
      1072 SSD  8.5068843E+02  6.1638254E-01 -7.3584187E-01  2.4353655E-02  3.2357714E+01 -3.2481478E+01 
      1073      2.3276947E+01  8.9755027E-03 -1.3606851E-02  5.7182685E-04  7.5641692E-01 -3.2844903E-01 
      1073 SSD  1.1005563E+03  5.8139208E-01 -4.9804652E-01  2.4408521E-02  4.2007068E+01 -1.8587423E+01 
      1074      1.5047809E+01  3.8780707E-03 -2.5165091E-02  5.9801863E-04  2.1764376E-01 -9.0562580E-01 
      1074 SSD  6.6111126E+02  3.9205945E-01 -1.0066911E+00  2.5008935E-02  1.1780679E+01 -4.7090026E+01 
      1075      6.3163588E+00  4.1157317E-03 -3.0900544E-02  6.1525141E-04  1.0745753E-01 -8.6675250E-01 
      1075 SSD  2.1766030E+02  4.1996309E-01 -1.2496193E+00  2.3692532E-02  5.4773007E+00 -4.2906504E+01 
      1076      2.3240230E+01  3.4763408E-03 -1.9560769E-02  5.8547943E-04  3.2550195E-01 -7.6069849E-01 
      1076 SSD  1.0995131E+03  3.6181868E-01 -7.6525304E-01  2.4751567E-02  1.8502037E+01 -4.2123151E+01 
      1077      2.9091756E+01  2.9617322E-03 -1.4013569E-02  5.7990157E-04  4.2919914E-01 -4.3227717E-01 
      1077 SSD  1.4329473E+03  3.3041128E-01 -5.2542555E-01  2.4627220E-02  2.5641564E+01 -2.5733726E+01 
      1078      2.9608758E+00  2.3140047E-02 -2.3992849E-02  5.0945019E-04  4.7453875E-01 -2.2779859E-01 
      1078 SSD  4.9236829E+01  1.1788554E+00 -9.3845006E-01  2.4593237E-02  2.2421255E+01 -1.0829150E+01 
      1079      7.7477738E+00  1.6733713E-02 -2.3786187E-02  5.5650396E-04  4.8730254E-01 -4.9718410E-01 
      1079 SSD  2.8267063E+02  9.0955276E-01 -9.3998577E-01  2.3941332E-02  2.4155312E+01 -2.4446293E+01 
      1080      6.4193120E-01  2.5040937E-02 -2.7477510E-02  3.2709789E-04  2.0881296E-01 -2.2482267E-01 
      1080 SSD -5.9585674E+01  1.2557613E+00 -1.1079877E+00  1.4137420E-02  9.5904925E+00 -1.0115817E+01 
      1081      2.8636440E+00  1.7408624E-02 -2.8118646E-02  4.4362758E-04  2.2129544E-01 -4.8235083E-01 
      1081 SSD  4.6150577E+01  9.3877848E-01 -1.1367175E+00  1.6861461E-02  1.0642161E+01 -2.2694277E+01 
      1082      5.0201275E+00  2.1466743E-02 -1.8673451E-02  6.0982621E-04  7.1074815E-01 -1.8845712E-01 
      1082 SSD  1.5016233E+02  1.1108007E+00 -6.9999303E-01  2.8816261E-02  3.4474880E+01 -9.2496754E+00 
      1083      1.2161413E+01  1.5713599E-02 -1.8675679E-02  5.5923031E-04  7.3366119E-01 -4.0129763E-01 
      1083 SSD  5.0645326E+02  8.6569475E-01 -7.1172539E-01  2.4183608E-02  3.7303804E+01 -2.0752938E+01 
      1084      6.3989162E+00  2.0510162E-02 -1.3331844E-02  6.4184184E-04  8.6978138E-01 -1.0373467E-01 
      1084 SSD  2.2002374E+02  1.0692644E+00 -4.5449036E-01  2.9736307E-02  4.2984636E+01 -5.3665856E+00 
      1085      1.5128709E+01  1.4828384E-02 -1.3373455E-02  5.6491953E-04  9.0190305E-01 -2.1731597E-01 
      1085 SSD  6.6339205E+02  8.2660660E-01 -4.7408199E-01  2.4384703E-02  4.6984774E+01 -1.1778283E+01 
      1086      6.7268869E+00 -2.6791246E-02 -1.0265250E-02  6.2737531E-04 -9.1095021E-01 -1.0346493E-02 
      1086 SSD  2.3751562E+02 -9.3925307E-01 -4.2984117E-01  2.7773119E-02 -4.5301141E+01 -4.1888981E-01 
      1087      1.5906907E+01 -2.1171442E-02 -1.0086431E-02  5.7543362E-04 -9.5354659E-01 -2.8195416E-02 
      1087 SSD  7.0569484E+02 -6.9872383E-01 -4.0143094E-01  2.4557793E-02 -4.9956929E+01 -1.4055911E+00 
      1088      2.4575106E+01 -1.5454849E-02 -9.7854909E-03  5.7727457E-04 -8.0756002E-01 -3.8611918E-02 
      1088 SSD  1.1723970E+03 -4.5558342E-01 -3.7288843E-01  2.4527156E-02 -4.5111307E+01 -2.3028002E+00 
      1089      3.0975558E+01 -9.5755702E-03 -9.3674766E-03  5.8014556E-04 -4.9209955E-01 -3.8965652E-02 
      1089 SSD  1.5421649E+03 -2.0670679E-01 -3.4369690E-01  2.4651963E-02 -3.0239826E+01 -2.8950790E+00 
      1090      1.5126316E+01 -2.1949835E-02 -4.3360732E-03  5.6742217E-04 -9.0169020E-01  2.1504126E-01 
      1090 SSD  6.6332360E+02 -7.3251694E-01 -1.5223595E-01  2.4533438E-02 -4.6982247E+01  1.1693343E+01 
      1091      1.2179359E+01 -2.2807499E-02  1.0377087E-03  5.7181170E-04 -7.3434093E-01  3.9930037E-01 
      1091 SSD  5.0711788E+02 -7.7095523E-01  8.8156289E-02  2.4596862E-02 -3.7324710E+01  2.0683176E+01 
      1092      7.7733492E+00 -2.3758491E-02  6.1535966E-03  5.7298982E-04 -4.8758695E-01  4.9766741E-01 
      1092 SSD  2.8366158E+02 -8.1285610E-01  3.1664700E-01  2.4486355E-02 -2.4162040E+01  2.4452117E+01 
      1093      2.8774630E+00 -2.4369243E-02  1.0456749E-02  5.5730593E-04 -2.2184954E-01  4.8426058E-01 
      1093 SSD  4.6829331E+01 -8.4051735E-01  5.1259154E-01  2.0841877E-02 -1.0661807E+01  2.2750709E+01 
      1094      5.0323889E+00 -2.8747817E-02  1.1035345E-03  6.0295058E-04 -7.1102554E-01  1.8778932E-01 
      1094 SSD  1.5060890E+02 -1.0220622E+00  7.9021606E-02  2.8285801E-02 -3.4489203E+01  9.2231447E+00 
      1095      6.4000961E+00 -2.7687141E-02 -4.3138238E-03  6.2803747E-04 -8.6930829E-01  1.0240438E-01 
      1095 SSD  2.2005131E+02 -9.7704375E-01 -1.6972824E-01  2.9445791E-02 -4.2966247E+01  5.3135840E+00 
      1096      2.9763301E+00 -3.0369453E-02  6.5192836E-03  4.7928580E-04 -4.7631686E-01  2.2796539E-01 
      1096 SSD  4.9864089E+01 -1.0885079E+00  3.2020549E-01  2.3308449E-02 -2.2489519E+01  1.0821543E+01 
      1097      6.4802858E-01 -3.2573522E-02  1.0368712E-02  2.8333593E-04 -2.1021850E-01  2.2661635E-01 
      1097 SSD -5.9191591E+01 -1.1745989E+00  5.0152661E-01  1.2305089E-02 -9.6434157E+00  1.0173272E+01 
      1098      2.3273417E+01 -1.0613976E-02  1.8100536E-03  5.8543931E-04 -3.2674070E-01  7.5933255E-01 
      1098 SSD  1.1006245E+03 -2.6809698E-01  1.3755752E-01  2.4748782E-02 -1.8539280E+01  4.2075891E+01 
      1099      1.8751641E+01 -1.6809620E-02  1.3288667E-03  5.7203209E-04 -6.0249047E-01  6.0468997E-01 
      1099 SSD  8.5153010E+02 -5.2285501E-01  1.1039390E-01  2.4359654E-02 -3.2373626E+01  3.2424644E+01 
      1100      2.9104294E+01 -1.0104310E-02 -3.7357663E-03  5.7984635E-04 -4.3064373E-01  4.2954424E-01 
      1100 SSD  1.4333627E+03 -2.3676910E-01 -1.0236252E-01  2.4641382E-02 -2.5687248E+01  2.5642890E+01 
      1101      2.3278467E+01 -1.6110131E-02 -4.1202198E-03  5.7369676E-04 -7.5725032E-01  3.2564632E-01 
      1101 SSD  1.1006272E+03 -4.8759365E-01 -1.2894227E-01  2.4486791E-02 -4.2032540E+01  1.8492451E+01 
      1102      6.3358456E+00 -1.1250983E-02  1.2970783E-02  6.1494077E-04 -1.0795334E-01  8.6913377E-01 
      1102 SSD  2.1848808E+02 -3.2623353E-01  6.1660110E-01  2.3616802E-02 -5.4930756E+00  4.2973344E+01 
      1103      1.5083847E+01 -1.1010809E-02  7.3656097E-03  5.9784150E-04 -2.1842816E-01  9.0644291E-01 
      1103 SSD  6.6237944E+02 -2.9826764E-01  3.7751622E-01  2.4970668E-02 -1.1803496E+01  4.7106528E+01 
      1104      4.9262108E+00 -1.7762210E-02  1.2103924E-02  5.5818943E-04 -1.9193596E-01  7.1171838E-01 
      1104 SSD  1.4763242E+02 -5.8125119E-01  5.7952564E-01  2.1058939E-02 -9.3760014E+00  3.4516843E+01 
      1105      1.2124089E+01 -1.7470755E-02  6.6792568E-03  5.7298683E-04 -3.9756801E-01  7.4288251E-01 
      1105 SSD  5.0562857E+02 -5.5813839E-01  3.4542104E-01  2.4163035E-02 -2.0651496E+01  3.7561295E+01 
      1106      2.3114796E+00 -1.9734255E-02 -3.4735625E-02  6.6237809E-04 -2.1345857E-01 -4.2104007E-01 
      1106 SSD  2.0076241E+01 -6.1554094E-01 -1.4162158E+00  3.0535240E-02 -1.0132193E+01 -2.0088893E+01 
      1107      6.7083636E+00 -1.9654333E-02 -2.8462613E-02  5.7242208E-04 -4.6258282E-01 -4.6261966E-01 
      1107 SSD  2.3356168E+02 -6.2181732E-01 -1.1520151E+00  2.4297916E-02 -2.2837693E+01 -2.2851996E+01 
      1108      1.1051318E+01 -1.9972866E-02 -2.2143101E-02  5.7982586E-04 -6.9983893E-01 -4.0006771E-01 
      1108 SSD  4.5148219E+02 -6.4247946E-01 -8.9604980E-01  2.4307627E-02 -3.5461042E+01 -2.0398419E+01 
      1109      1.4383187E+01 -2.0519552E-02 -1.5972805E-02  5.7592159E-04 -8.7713101E-01 -2.5026541E-01 
      1109 SSD  6.2434033E+02 -6.6969513E-01 -6.4598819E-01  2.4222624E-02 -4.5403881E+01 -1.3215199E+01 
      1110      2.2815983E+00 -2.4390469E-02 -2.9156503E-02  5.1084368E-04 -4.2814509E-01 -2.1557399E-01 
      1110 SSD  1.9157174E+01 -8.3145993E-01 -1.1827958E+00  1.9484470E-02 -2.0328369E+01 -1.0229938E+01 
      1111      2.3962388E-01 -2.3701044E-02 -3.6138110E-02  5.5555663E-04 -1.9793914E-01 -1.8865058E-01 
      1111 SSD -7.7173801E+01 -7.9634544E-01 -1.4780654E+00  2.4256268E-02 -9.1091065E+00 -8.7730086E+00 
      1112      4.3561290E+00 -2.5162378E-02 -2.2516189E-02  5.5857295E-04 -6.5393190E-01 -1.8529138E-01 
      1112 SSD  1.1939877E+02 -8.6755312E-01 -9.2177855E-01  2.1589659E-02 -3.1754278E+01 -9.0061994E+00 
      1113      5.9657755E+00 -2.5998404E-02 -1.6157544E-02  5.8306781E-04 -8.2931454E-01 -1.1442132E-01 
      1113 SSD  1.9918472E+02 -9.0529137E-01 -6.7065926E-01  2.3787018E-02 -4.0927119E+01 -5.6978060E+00 
      1114      1.4367331E+01 -8.7282664E-03 -2.6792721E-02  5.9247178E-04 -2.4752442E-01 -8.7749146E-01 
      1114 SSD  6.2392769E+02 -1.3744872E-01 -1.0762377E+00  2.5305603E-02 -1.3147532E+01 -4.5415549E+01 
      1115      1.1050733E+01 -1.4334643E-02 -2.7663231E-02  5.7271093E-04 -4.0008048E-01 -6.9983082E-01 
      1115 SSD  4.5143939E+02 -3.8561884E-01 -1.1151904E+00  2.4688148E-02 -2.0403578E+01 -3.5468527E+01 
      1116      5.9675669E+00 -8.9238663E-03 -3.2733571E-02  7.0483675E-04 -1.1038108E-01 -8.2541512E-01 
      1116 SSD  1.9926752E+02 -1.2758408E-01 -1.3270715E+00  3.1391723E-02 -5.5882994E+00 -4.0810833E+01 
      1117      4.3761681E+00 -1.4343040E-02 -3.3656913E-02  6.7404509E-04 -1.8477420E-01 -6.4973271E-01 
      1117 SSD  1.1992277E+02 -3.7392653E-01 -1.3686816E+00  3.1524409E-02 -9.0026542E+00 -3.1629462E+01 
      1118      2.8424693E+01 -9.1191777E-03 -1.5081422E-02  5.8256435E-04 -4.6234381E-01 -4.6364430E-01 
      1118 SSD  1.3877926E+03 -1.7939779E-01 -5.8555272E-01  2.4722848E-02 -2.7274035E+01 -2.7309198E+01 
      1119      2.2405212E+01 -8.8101119E-03 -2.0896452E-02  5.8754939E-04 -3.7106861E-01 -7.4681149E-01 
      1119 SSD  1.0496403E+03 -1.5562843E-01 -8.2951435E-01  2.4952418E-02 -2.0700669E+01 -4.0773228E+01 
      1120      2.2416199E+01 -1.4913336E-02 -1.5591133E-02  5.7985994E-04 -7.4641160E-01 -3.7291369E-01 
      1120 SSD  1.0499287E+03 -4.2789870E-01 -6.1666428E-01  2.4541201E-02 -4.0764315E+01 -2.0750688E+01 
      1121      1.7522232E+01 -1.4519304E-02 -2.1578664E-02  5.8076290E-04 -5.9922609E-01 -5.9925498E-01 
      1121 SSD  7.8569302E+02 -4.0390240E-01 -8.6400721E-01  2.4658230E-02 -3.1649585E+01 -3.1650452E+01 

 MAXIMUM          1693.       1.465       1.012       1.643       49.99       50.03    
 AT NODE              1045        1013        1011        1002        1052        1042

 MINIMUM         -141.8      -1.398      -1.630     -0.8603      -49.96      -49.99    
 AT NODE              1012        1002        1022        1019        1087        1048


          INCREMENT NUMBER    2  AT FREQUENCY (CYCLES/TIME) =   510.00000    
  
  
  
  
                                       N O D E   O U T P U T
  
  
  
  
   THE FOLLOWING TABLE IS PRINTED FOR NODES BELONGING TO NODE SET CUBE_ASI
  
       NODE FOOT-  V1             V2             V3             VR1            VR2            VR3          
            NOTE
  
      1001     -1.2560545E+00 -3.3423989E-02  1.9573665E-02  1.3067789E-02  3.9114605E-02 -3.5276314E-02 
      1001 SSD -1.4393015E+02 -1.2235586E+00  8.8346120E-01  5.6543228E-01  1.5945302E+00 -1.5421404E+00 
      1002     -1.2465115E+00 -4.2594338E-02  1.7563205E-02  4.0064333E-02 -1.0274418E-03  1.1811466E-01 
      1002 SSD -1.4349929E+02 -1.5053758E+00  8.2623870E-01  1.7680851E+00  2.0834240E-01  4.9796808E+00 
      1003     -1.2337038E+00 -2.5610524E-02  1.9979505E-02  1.3198848E-02  1.6928453E-03  3.5760710E-01 
      1003 SSD -1.4302201E+02 -8.6700164E-01  9.1049996E-01  6.4852703E-01  1.8577878E-01  1.5246304E+01 
      1004     -1.2316275E+00 -2.0679635E-02  1.9569865E-02  7.5302794E-03 -1.0378665E-02  5.7894058E-01 
      1004 SSD -1.4285555E+02 -6.8140199E-01  9.0119369E-01  4.6638972E-01 -2.9679918E-01  2.4962499E+01 
      1005     -1.2273160E+00 -1.2992344E-02  1.9916760E-02 -7.8159653E-04 -1.6548907E-02  7.3457387E-01 
      1005 SSD -1.4264594E+02 -4.0135513E-01  9.2054537E-01  8.3427720E-02 -7.8987718E-01  3.1970603E+01 
      1006     -1.2256727E+00 -5.5376018E-03  2.0259265E-02 -1.0205928E-02 -1.7598882E-02  7.7953441E-01 
      1006 SSD -1.4253930E+02 -1.0975508E-01  9.4784278E-01 -4.0104873E-01 -9.0609992E-01  3.4068539E+01 
      1007     -1.2281744E+00  1.2254858E-03  2.0360896E-02 -1.5540569E-02 -1.3401804E-02  7.0705580E-01 
      1007 SSD -1.4265193E+02  1.9236770E-01  9.6477042E-01 -7.4816435E-01 -6.8579699E-01  3.0756182E+01 
      1008     -1.2348938E+00  6.0835978E-03  2.0028422E-02 -1.7622815E-02 -7.1351284E-03  5.4017323E-01 
      1008 SSD -1.4293805E+02  4.2402528E-01  9.5997124E-01 -8.5977903E-01 -4.0338559E-01  2.3318285E+01 
      1009     -1.2385340E+00  1.4337841E-02  2.1014231E-02 -1.0584149E-02 -5.4115059E-03  3.2180510E-01 
      1009 SSD -1.4314367E+02  7.6427709E-01  9.9149753E-01 -5.6085338E-01 -2.6786756E-01  1.3821792E+01 
      1010     -1.2538998E+00  1.4782146E-02  2.0622696E-02 -1.4453689E-02  1.6099667E-02  1.0296718E-01 
      1010 SSD -1.4368710E+02  8.2904120E-01  9.7936743E-01 -7.0684095E-01  7.1626900E-01  4.4122115E+00 
      1011     -1.2526608E+00  2.3373736E-02  2.3260790E-02  1.9179680E-02 -3.7072577E-03 -1.9731307E-02 
      1011 SSD -1.4374520E+02  1.1673555E+00  1.0583203E+00  7.8634402E-01 -2.2552328E-01 -7.9660133E-01 
      1012     -1.2486509E+00  2.3442399E-02 -4.2437725E-02  1.3603109E-02 -4.0311055E-02  3.2768055E-02 
      1012 SSD -1.4391586E+02  1.2424434E+00 -1.6206408E+00  5.8523988E-01 -1.6446106E+00  1.4374832E+00 
      1013     -1.2388037E+00  3.2973374E-02 -4.0231953E-02  3.3844977E-02  1.0868916E-03 -1.1635062E-01 
      1013 SSD -1.4348890E+02  1.5380874E+00 -1.5572571E+00  1.5247894E+00 -2.0763759E-01 -4.9189934E+00 
      1014     -1.2260333E+00  1.8574250E-02 -4.1943504E-02  1.4987361E-02 -1.7646061E-03 -3.5518776E-01 
      1014 SSD -1.4302720E+02  9.7557674E-01 -1.6201566E+00  7.1250464E-01 -1.8911266E-01 -1.5164875E+01 
      1015     -1.2240516E+00  1.1560057E-02 -4.1492271E-02  7.1331857E-03  1.0383978E-02 -5.7643174E-01 
      1015 SSD -1.4287897E+02  7.2790792E-01 -1.6091467E+00  4.5597322E-01  2.9569347E-01 -2.4886957E+01 
      1016     -1.2196242E+00  4.6065881E-03 -4.1592687E-02 -8.6718470E-04  1.6579733E-02 -7.3144592E-01 
      1016 SSD -1.4267986E+02  4.6939555E-01 -1.6214318E+00  7.4503833E-02  7.8742690E-01 -3.1875781E+01 
      1017     -1.2178615E+00 -2.9363448E-03 -4.1811542E-02 -9.1838916E-03  1.7948189E-02 -7.7677985E-01 
      1017 SSD -1.4258293E+02  1.7803660E-01 -1.6447823E+00 -3.6575476E-01  9.1929651E-01 -3.3986339E+01 
      1018     -1.2204602E+00 -1.0799855E-02 -4.2029485E-02 -1.4231777E-02  1.3324660E-02 -7.0559337E-01 
      1018 SSD -1.4271440E+02 -1.5992520E-01 -1.6651492E+00 -6.8915004E-01  6.8365634E-01 -3.0731756E+01 
      1019     -1.2272735E+00 -1.5715495E-02 -4.1854986E-02 -1.8913179E-02  6.5453630E-03 -5.3784125E-01 
      1019 SSD -1.4301913E+02 -3.9472371E-01 -1.6654906E+00 -9.1771104E-01  3.7841741E-01 -2.3262252E+01 
      1020     -1.2303480E+00 -2.2257745E-02 -4.2656660E-02 -1.1744133E-02  5.8067926E-03 -3.1850939E-01 
      1020 SSD -1.4322082E+02 -6.8034688E-01 -1.6910914E+00 -6.1227064E-01  2.8281216E-01 -1.3716796E+01 
      1021     -1.2460098E+00 -2.4746879E-02 -4.2196609E-02 -1.1243805E-02 -1.6143819E-02 -1.0297815E-01 
      1021 SSD -1.4378896E+02 -8.0923396E-01 -1.6760732E+00 -5.7972447E-01 -7.1992194E-01 -4.4223844E+00 
      1022     -1.2445880E+00 -3.1546662E-02 -4.4306361E-02  1.4388793E-02  1.1206831E-03  2.2215863E-02 
      1022 SSD -1.4385509E+02 -1.0926784E+00 -1.7387120E+00  6.0507767E-01  1.2327576E-01  8.8565249E-01 
      1023     -1.2382042E+00 -3.2880687E-02 -4.2698964E-02  2.0917380E-02 -9.0326110E-02 -6.2219868E-03 
      1023 SSD -1.4352563E+02 -1.1516184E+00 -1.6822418E+00  9.9744230E-01 -3.9525021E+00 -3.5079439E-01 
      1024     -1.2317637E+00 -3.3991820E-02 -3.3301564E-02  1.6428427E-02 -3.0169706E-01  1.2656566E-03 
      1024 SSD -1.4321689E+02 -1.1890344E+00 -1.2838270E+00  7.7788416E-01 -1.3167362E+01  8.6898096E-02 
      1025     -1.2276103E+00 -3.4449463E-02 -2.5922988E-02  9.3367767E-03 -5.2623034E-01  6.6128297E-03 
      1025 SSD -1.4296819E+02 -1.2106847E+00 -1.0162862E+00  5.3447196E-01 -2.2934889E+01  3.8479683E-01 
      1026     -1.2234738E+00 -3.4658500E-02 -1.8711117E-02  1.9956182E-03 -6.9880362E-01  1.2432903E-02 
      1026 SSD -1.4272266E+02 -1.2287889E+00 -7.4609843E-01  1.8879047E-01 -3.0518167E+01  6.6906126E-01 
      1027     -1.2229309E+00 -3.4794542E-02 -1.2563871E-02 -5.3759890E-03 -7.7955178E-01  1.6587600E-02 
      1027 SSD -1.4263890E+02 -1.2495185E+00 -5.1037138E-01 -1.9543629E-01 -3.4027997E+01  8.8091333E-01 
      1028     -1.2250753E+00 -3.4858237E-02 -5.8402827E-03 -1.1059559E-02 -7.4625343E-01  1.4020666E-02 
      1028 SSD -1.4271697E+02 -1.2618875E+00 -2.1883544E-01 -5.6192797E-01 -3.2264728E+01  6.8956037E-01 
      1029     -1.2302453E+00 -3.4779505E-02 -1.9465145E-04 -1.7017544E-02 -6.0134607E-01  9.2309351E-03 
      1029 SSD -1.4291811E+02 -1.2649365E+00  4.8537402E-02 -8.6136427E-01 -2.5562170E+01  2.7441689E-01 
      1030     -1.2349562E+00 -3.4906750E-02  6.0676103E-03 -1.1297539E-02 -3.9013176E-01 -3.1389513E-03 
      1030 SSD -1.4313505E+02 -1.2695269E+00  3.2440821E-01 -6.0923579E-01 -1.6230148E+01 -2.6669709E-01 
      1031     -1.2484454E+00 -3.4672057E-02  7.1166925E-03 -1.9627081E-02 -1.4269966E-01  2.2301461E-03 
      1031 SSD -1.4360230E+02 -1.2679584E+00  4.0624741E-01 -9.1436463E-01 -5.7368083E+00 -1.5148288E-01 
      1032     -1.2450777E+00  2.4254488E-02  2.0261362E-02  2.0318180E-02  9.0608528E-02  6.5887697E-03 
      1032 SSD -1.4343585E+02  1.2126248E+00  9.5824818E-01  9.7477079E-01  3.9612910E+00  3.5978341E-01 
      1033     -1.2366186E+00  2.5206163E-02  1.1424600E-02  1.6827182E-02  3.0334394E-01 -1.2659635E-03 
      1033 SSD -1.4312327E+02  1.2449740E+00  5.7677934E-01  7.9089306E-01  1.3216387E+01 -9.4658419E-02 
      1034     -1.2308617E+00  2.5555845E-02  4.1490048E-03  9.3167684E-03  5.2895344E-01 -6.3784714E-03 
      1034 SSD -1.4288215E+02  1.2628685E+00  3.1154218E-01  5.3330259E-01  2.3018085E+01 -3.8073471E-01 
      1035     -1.2251173E+00  2.5717651E-02 -2.8484252E-03  1.9479892E-03  7.0118127E-01 -1.2652110E-02 
      1035 SSD -1.4264591E+02  1.2788846E+00  4.7569577E-02  1.8624218E-01  3.0589183E+01 -6.8497342E-01 
      1036     -1.2227193E+00  2.5881120E-02 -8.7479859E-03 -5.4606646E-03  7.8087886E-01 -1.5981464E-02 
      1036 SSD -1.4255878E+02  1.3009123E+00 -1.7834854E-01 -1.9692896E-01  3.4075579E+01 -8.5888338E-01 
      1037     -1.2234677E+00  2.5894317E-02 -1.5344991E-02 -1.1227551E-02  7.4549008E-01 -1.4527662E-02 
      1037 SSD -1.4265867E+02  1.3111848E+00 -4.6637821E-01 -5.7059607E-01  3.2238123E+01 -7.3232612E-01 
      1038     -1.2277658E+00  2.5793729E-02 -2.0846979E-02 -1.7222167E-02  5.9816558E-01 -9.9523704E-03 
      1038 SSD -1.4288627E+02  1.3151573E+00 -7.2690487E-01 -8.6642815E-01  2.5464553E+01 -2.9146553E-01 
      1039     -1.2308992E+00  2.5873449E-02 -2.7258075E-02 -1.1057856E-02  3.8699357E-01  3.9935206E-03 
      1039 SSD -1.4310674E+02  1.3186747E+00 -1.0083430E+00 -6.0038395E-01  1.6136580E+01  2.8999274E-01 
      1040     -1.2410188E+00  2.5924243E-02 -2.7122534E-02 -1.9709388E-02  1.4158187E-01 -6.9952385E-04 
      1040 SSD -1.4352983E+02  1.3252820E+00 -1.0532174E+00 -9.1796700E-01  5.7028780E+00  1.9859215E-01 
      1041      7.6223788E+00 -5.5061681E-03  1.3788054E-02  7.4860509E-04  4.7197950E-03  1.0223456E+00 
      1041 SSD  2.6158985E+02 -8.1092661E-02  6.7605912E-01  3.0226554E-02  2.7448391E-01  4.8314985E+01 
      1042      1.7917074E+01 -5.4945514E-03  7.6029581E-03  6.4397042E-04  2.4598673E-02  1.0681787E+00 
      1042 SSD  7.6031731E+02 -5.6757464E-02  4.1875822E-01  2.6628302E-02  1.3183221E+00  5.3137483E+01 
      1043      2.7595420E+01 -5.2602050E-03  1.4729658E-03  6.3569737E-04  3.6923015E-02  8.9741248E-01 
      1043 SSD  1.2554662E+03 -2.9566204E-02  1.6299813E-01  2.6365065E-02  2.2759960E+00  4.7695161E+01 
      1044      3.4679866E+01 -4.8475473E-03 -4.6167077E-03  6.2933773E-04  3.7739581E-02  5.4058325E-01 
      1044 SSD  1.6452452E+03 -1.5461204E-04 -9.1571090E-02  2.6166495E-02  2.8877361E+00  3.1711967E+01 
      1045      3.7342421E+01 -4.3400188E-03 -1.0695595E-02  6.2772620E-04 -9.7288520E-04 -1.6696996E-03 
      1045 SSD  1.8025652E+03  3.0220926E-02 -3.4561476E-01  2.6110267E-02 -3.0091344E-02 -5.0678799E-02 
      1046      3.4648140E+01 -3.8426623E-03 -1.6782406E-02  6.2993526E-04 -3.9572784E-02 -5.4357623E-01 
      1046 SSD  1.6442635E+03  6.0266063E-02 -5.9988086E-01  2.6173549E-02 -2.9435809E+00 -3.1805945E+01 
      1047      2.7542703E+01 -3.4578076E-03 -2.2899574E-02  6.3799310E-04 -3.8501281E-02 -8.9852366E-01 
      1047 SSD  1.2538137E+03  8.8792745E-02 -8.5521535E-01  2.6428211E-02 -2.3230185E+00 -4.7732657E+01 
      1048      1.7866514E+01 -3.2573012E-03 -2.9101926E-02  6.5064970E-04 -2.5513803E-02 -1.0666149E+00 
      1048 SSD  7.5866767E+02  1.1499566E-01 -1.1131172E+00  2.6820440E-02 -1.3434059E+00 -5.3098851E+01 
      1049      7.5974464E+00 -3.2724723E-03 -3.5491898E-02  7.4635518E-04 -4.6926697E-03 -1.0188550E+00 
      1049 SSD  2.6061795E+02  1.3865709E-01 -1.3767361E+00  2.9987857E-02 -2.7250937E-01 -4.8221599E+01 
      1050      3.4678562E+01  2.1311677E-03 -1.0180637E-02  6.2492675E-04  5.4017439E-01  3.7069439E-02 
      1050 SSD  1.6451529E+03  2.9787392E-01 -3.1498531E-01  2.6005998E-02  3.1710544E+01  2.8679594E+00 
      1051      2.7606286E+01  8.4843759E-03 -9.7570942E-03  6.2009306E-04  8.9574389E-01  3.7092823E-02 
      1051 SSD  1.2556134E+03  5.6112094E-01 -2.8521101E-01  2.5823531E-02  4.7656508E+01  2.2731534E+00 
      1052      1.7949096E+01  1.4668812E-02 -9.4721600E-03  6.1635203E-04  1.0660593E+00  2.7120057E-02 
      1052 SSD  7.6095166E+02  8.1858230E-01 -2.5636004E-01  2.5677539E-02  5.3093284E+01  1.3784430E+00 
      1053      7.6554765E+00  2.0714173E-02 -9.3079766E-03  6.7633430E-04  1.0242766E+00  9.1776219E-03 
      1053 SSD  2.6222666E+02  1.0723118E+00 -2.2713109E-01  2.8753279E-02  4.8361735E+01  3.8525088E-01 
      1054      2.5261418E+01  7.8365944E-03 -3.5541247E-03  6.2312938E-04  8.2965896E-01  4.0952553E-01 
      1054 SSD  1.1276567E+03  5.3025491E-01 -2.9766460E-02  2.5846916E-02  4.3137055E+01  2.1808355E+01 
      1055      1.9836514E+01  7.3295011E-03  2.8570563E-03  6.2553815E-04  6.6810071E-01  6.6818134E-01 
      1055 SSD  8.4838630E+02  5.0246519E-01  2.2985309E-01  2.6038419E-02  3.3575130E+01  3.3579068E+01 
      1056      1.2581759E+01  7.0324940E-03  9.3819921E-03  6.2086106E-04  4.4793698E-01  7.8813364E-01 
      1056 SSD  4.9250617E+02  4.8000717E-01  4.9393485E-01  2.6104648E-02  2.1709720E+01  3.7882950E+01 
      1057      5.0392453E+00  6.9515393E-03  1.5892969E-02  7.5222672E-04  2.0747388E-01  7.3667963E-01 
      1057 SSD  1.3756086E+02  4.6469302E-01  7.6345510E-01  3.3888332E-02  9.5986579E+00  3.3948553E+01 
      1058      2.5257014E+01  1.1866723E-03  2.1859871E-03  6.2983981E-04  4.0889160E-01  8.2990184E-01 
      1058 SSD  1.1275982E+03  2.4056884E-01  1.9615565E-01  2.6280380E-02  2.1801419E+01  4.3141004E+01 
      1059      3.1911090E+01  1.5897803E-03 -4.0509772E-03  6.2677948E-04  5.0797694E-01  5.0813076E-01 
      1059 SSD  1.4841299E+03  2.6777172E-01 -6.0517389E-02  2.6077716E-02  2.8643527E+01  2.8639785E+01 
      1060      1.6279760E+01  1.0046781E-03  8.4947001E-03  6.3008771E-04  2.7401672E-01  9.8407293E-01 
      1060 SSD  6.7558489E+02  2.1830031E-01  4.5529053E-01  2.6559425E-02  1.3899837E+01  4.8363397E+01 
      1061      6.8225858E+00  1.1019065E-03  1.4814238E-02  7.6227186E-04  1.2343605E-01  9.3287360E-01 
      1061 SSD  2.2209008E+02  2.0392348E-01  7.1753276E-01  3.3484570E-02  5.9546799E+00  4.3704423E+01 
      1062      5.0242190E+00  1.8811361E-02  3.7414894E-03  6.0592234E-04  7.4175402E-01  2.0885575E-01 
      1062 SSD  1.3720292E+02  9.9265479E-01  2.8545127E-01  2.2385154E-02  3.4096672E+01  9.6270663E+00 
      1063      1.2586507E+01  1.3250669E-02  3.4031478E-03  6.2063637E-04  7.8736137E-01  4.4791269E-01 
      1063 SSD  4.9267253E+02  7.5595463E-01  2.6102829E-01  2.5472755E-02  3.7851688E+01  2.1703583E+01 
      1064      6.8246016E+00  1.9818571E-02 -3.0583441E-03  6.3805440E-04  9.3630819E-01  1.2628192E-01 
      1064 SSD  2.2203665E+02  1.0356210E+00  2.2794070E-02  2.5074123E-02  4.3803142E+01  6.0065809E+00 
      1065      1.6291991E+01  1.3904342E-02 -3.2018817E-03  6.2065639E-04  9.8295945E-01  2.7510813E-01 
      1065 SSD  6.7582100E+02  7.8648557E-01 -1.0736059E-03  2.5504199E-02  4.8336230E+01  1.3907992E+01 
      1066      3.5027484E-01  1.6629377E-02  1.8364880E-02  5.3873079E-04  2.2702349E-01  2.1602641E-01 
      1066 SSD -7.3962824E+01  8.9971604E-01  8.6976532E-01  2.3562245E-02  9.8655432E+00  9.4845648E+00 
      1067      2.6765467E+00  1.7782872E-02  1.0898796E-02  5.5192004E-04  4.8760233E-01  2.4472433E-01 
      1067 SSD  2.9768586E+01  9.4877909E-01  5.6076604E-01  2.1035014E-02  2.1894579E+01  1.0988732E+01 
      1068      2.7107269E+00  1.3000787E-02  1.6905042E-02  7.2034321E-04  2.4150308E-01  4.7873823E-01 
      1068 SSD  3.0808760E+01  7.2781976E-01  8.0767828E-01  3.2243224E-02  1.0856920E+01  2.1602774E+01 
      1069      7.6967007E+00  1.2872187E-02  1.0194666E-02  6.1639976E-04  5.2261765E-01  5.2321103E-01 
      1069 SSD  2.5994089E+02  7.3314677E-01  5.3041685E-01  2.5488412E-02  2.4449498E+01  2.4480871E+01 
      1070      5.5894635E+00  1.0858616E-02 -3.3111884E-02  6.1916751E-04  2.1592461E-01 -7.9674751E-01 
      1070 SSD  1.6490416E+02  6.8839274E-01 -1.2845410E+00  2.2741157E-02  1.0016859E+01 -3.6785283E+01 
      1071      1.3640512E+01  1.0680668E-02 -2.7311513E-02  6.2456530E-04  4.4423870E-01 -8.3067066E-01 
      1071 SSD  5.4603653E+02  6.6840825E-01 -1.0383699E+00  2.5719310E-02  2.1944253E+01 -3.9970828E+01 
      1072      2.1046093E+01  1.0004165E-02 -2.1583363E-02  6.1683997E-04  6.7058964E-01 -6.7567563E-01 
      1072 SSD  9.1364432E+02  6.3281491E-01 -7.9089144E-01  2.5726744E-02  3.4297920E+01 -3.4434981E+01 
      1073      2.6114482E+01  9.2361576E-03 -1.5793641E-02  6.1602201E-04  8.3995016E-01 -3.6607006E-01 
      1073 SSD  1.1782686E+03  5.9578709E-01 -5.4057181E-01  2.5777522E-02  4.4413700E+01 -1.9668226E+01 
      1074      1.6945087E+01  3.6828632E-03 -2.8206697E-02  6.4698381E-04  2.4366979E-01 -1.0113042E+00 
      1074 SSD  7.1237554E+02  3.9374388E-01 -1.0766676E+00  2.6473556E-02  1.2506776E+01 -5.0024698E+01 
      1075      7.1711856E+00  3.8829576E-03 -3.4394596E-02  6.7088635E-04  1.2092946E-01 -9.7260178E-01 
      1075 SSD  2.4037586E+02  4.2159921E-01 -1.3334816E+00  2.5234554E-02  5.8380375E+00 -4.5763457E+01 
      1076      2.6071832E+01  3.2778176E-03 -2.2182473E-02  6.3190283E-04  3.6264302E-01 -8.4490841E-01 
      1076 SSD  1.1771098E+03  3.6278970E-01 -8.2194718E-01  2.6166057E-02  1.9572938E+01 -4.4542124E+01 
      1077      3.2562042E+01  2.7284911E-03 -1.6222354E-02  6.2535712E-04  4.7491021E-01 -4.7849633E-01 
      1077 SSD  1.5291458E+03  3.3008508E-01 -5.6899693E-01  2.6022120E-02  2.7006920E+01 -2.7109762E+01 
      1078      3.4013014E+00  2.4650531E-02 -2.6902456E-02  5.4294127E-04  5.3383079E-01 -2.5664662E-01 
      1078 SSD  6.0749623E+01  1.2293580E+00 -1.0042953E+00  2.5834870E-02  2.3987170E+01 -1.1586496E+01 
      1079      8.7745386E+00  1.7703475E-02 -2.6661737E-02  5.9861787E-04  5.4644856E-01 -5.5783023E-01 
      1079 SSD  3.0992601E+02  9.4404486E-01 -1.0054814E+00  2.5273433E-02  2.5757358E+01 -2.6076693E+01 
      1080      7.8826181E-01  2.6808686E-02 -3.0529806E-02  3.3513073E-04  2.3546754E-01 -2.5397263E-01 
      1080 SSD -5.5750255E+01  1.3123976E+00 -1.1812143E+00  1.4643461E-02  1.0284350E+01 -1.0860243E+01 
      1081      3.2892384E+00  1.8460994E-02 -3.1256579E-02  4.7245314E-04  2.4921267E-01 -5.4283482E-01 
      1081 SSD  5.7370241E+01  9.7529402E-01 -1.2120772E+00  1.7765445E-02  1.1382372E+01 -2.4285109E+01 
      1082      5.7169575E+00  2.2765092E-02 -2.1258107E-02  6.5399315E-04  7.9817196E-01 -2.1202747E-01 
      1082 SSD  1.6850597E+02  1.1562006E+00 -7.5434123E-01  3.0311501E-02  3.6813423E+01 -9.8764510E+00 
      1083      1.3717891E+01  1.6560260E-02 -2.1226922E-02  6.0043794E-04  8.2048694E-01 -4.4908236E-01 
      1083 SSD  5.4815408E+02  8.9715626E-01 -7.6586461E-01  2.5497049E-02  3.9690168E+01 -2.2068059E+01 
      1084      7.2668483E+00  2.1683949E-02 -1.5588033E-02  6.9251167E-04  9.7605875E-01 -1.1663733E-01 
      1084 SSD  2.4297822E+02  1.1115669E+00 -4.9710559E-01  3.1355036E-02  4.5849921E+01 -5.7163396E+00 
      1085      1.7038671E+01  1.5563382E-02 -1.5575231E-02  6.0732626E-04  1.0070257E+00 -2.4333008E-01 
      1085 SSD  7.1489353E+02  8.5528112E-01 -5.1626512E-01  2.5721548E-02  4.9909884E+01 -1.2505014E+01 
      1086      7.6416564E+00 -2.9362981E-02 -1.2067524E-02  6.7920670E-04 -1.0228256E+00 -1.0688219E-02 
      1086 SSD  2.6172346E+02 -1.0112555E+00 -4.6379041E-01  2.9358944E-02 -4.8319960E+01 -4.2928637E-01 
      1087      1.7921948E+01 -2.3311722E-02 -1.1938182E-02  6.2009618E-04 -1.0647784E+00 -2.9487260E-02 
      1087 SSD  7.6006011E+02 -7.5728513E-01 -4.3558447E-01  2.5935681E-02 -5.3058039E+01 -1.4499132E+00 
      1088      2.7576881E+01 -1.7151336E-02 -1.1652321E-02  6.2250292E-04 -8.9639726E-01 -4.0175226E-02 
      1088 SSD  1.2546893E+03 -5.0043948E-01 -4.0663786E-01  2.5915572E-02 -4.7679711E+01 -2.3673109E+00 
      1089      3.4660789E+01 -1.0808926E-02 -1.1217513E-02  6.2553566E-04 -5.4178996E-01 -4.0299013E-02 
      1089 SSD  1.6446013E+03 -2.3742362E-01 -3.7647035E-01  2.6045660E-02 -3.1761405E+01 -2.9660859E+00 
      1090      1.7035759E+01 -2.4194579E-02 -5.7570075E-03  6.0955286E-04 -1.0067572E+00  2.4075315E-01 
      1090 SSD  7.1480410E+02 -7.9365315E-01 -1.7283648E-01  2.5867390E-02 -4.9905974E+01  1.2412639E+01 
      1091      1.3738014E+01 -2.5159523E-02 -2.9440521E-05  6.1441624E-04 -8.2124198E-01  4.4682648E-01 
      1091 SSD  5.4886234E+02 -8.3479448E-01  7.9625153E-02  2.5941024E-02 -3.9712411E+01  2.1992275E+01 
      1092      8.8031587E+00 -2.6224188E-02  5.4102113E-03  6.1752585E-04 -5.4676367E-01  5.5840161E-01 
      1092 SSD  3.1098433E+02 -8.7954290E-01  3.1946380E-01  2.5871169E-02 -2.5764468E+01  2.6083874E+01 
      1093      3.3042611E+00 -2.6908937E-02  9.9705044E-03  6.0007695E-04 -2.4983372E-01  5.4502624E-01 
      1093 SSD  5.8079893E+01 -9.0907851E-01  5.2516377E-01  2.2056423E-02 -1.1403290E+01  2.4347411E+01 
      1094      5.7307602E+00 -3.1571298E-02  7.5182674E-05  6.4625718E-04 -7.9848430E-01  2.1127381E-01 
      1094 SSD  1.6898565E+02 -1.1002378E+00  7.0829434E-02  2.9752113E-02 -3.6828009E+01  9.8477765E+00 
      1095      7.2681017E+00 -3.0376360E-02 -5.6725741E-03  6.7523411E-04 -9.7553296E-01  1.1513712E-01 
      1095 SSD  2.4300383E+02 -1.0519195E+00 -1.8973887E-01  3.0998446E-02 -4.5829230E+01  5.6592363E+00 
      1096      3.4185936E+00 -3.3397665E-02  5.8264894E-03  5.0996251E-04 -5.3582639E-01  2.5686554E-01 
      1096 SSD  6.1419928E+01 -1.1716339E+00  3.2372144E-01  2.4480415E-02 -2.4060092E+01  1.1579448E+01 
      1097      7.9463313E-01 -3.5890103E-02  9.8596133E-03  2.8730572E-04 -2.3704339E-01  2.5604309E-01 
      1097 SSD -5.5344036E+01 -1.2644908E+00  5.1328395E-01  1.2701336E-02 -1.0340916E+01  1.0923680E+01 
      1098      2.6109676E+01 -1.1928594E-02  8.0257665E-04  6.3180941E-04 -3.6409988E-01  8.4335774E-01 
      1098 SSD  1.1783222E+03 -3.0160617E-01  1.3133418E-01  2.6162138E-02 -1.9615537E+01  4.4490656E+01 
      1099      2.1073132E+01 -1.8655334E-02  2.7397562E-04  6.1627231E-04 -6.7126517E-01  6.7385041E-01 
      1099 SSD  9.1454788E+02 -5.7180261E-01  1.0267099E-01  2.5728924E-02 -3.4316283E+01  3.4372983E+01 
      1100      3.2576295E+01 -1.1384956E-02 -5.1544694E-03  6.2515378E-04 -4.7659634E-01  4.7536622E-01 
      1100 SSD  1.5295944E+03 -2.6899288E-01 -1.2167780E-01  2.6033786E-02 -2.7058663E+01  2.7009724E+01 
      1101      2.6115928E+01 -1.7882946E-02 -5.5583536E-03  6.1796594E-04 -8.4090688E-01  3.6287495E-01 
      1101 SSD  1.1783284E+03 -5.3450220E-01 -1.4924812E-01  2.5857902E-02 -4.4442073E+01  1.9564068E+01 
      1102      7.1929644E+00 -1.2531549E-02  1.2810483E-02  6.7064291E-04 -1.2151390E-01  9.7534232E-01 
      1102 SSD  2.4125530E+02 -3.6041978E-01  6.3703048E-01  2.5158741E-02 -5.8557546E+00  4.5838108E+01 
      1103      1.6986006E+01 -1.2328089E-02  6.7708990E-03  6.4687749E-04 -2.4460414E-01  1.0122654E+00 
      1103 SSD  7.1375134E+02 -3.3248239E-01  3.8442630E-01  2.6435535E-02 -1.2533193E+01  5.0044193E+01 
      1104      5.6076702E+00 -1.9667367E-02  1.1827935E-02  6.0638225E-04 -2.1597611E-01  7.9936691E-01 
      1104 SSD  1.6569390E+02 -6.3254332E-01  5.9713139E-01  2.2405282E-02 -1.0013580E+01  3.6860595E+01 
      1105      1.3674021E+01 -1.9373329E-02  5.9961143E-03  6.1880788E-04 -4.4478361E-01  8.3109022E-01 
      1105 SSD  5.4721844E+02 -6.0883077E-01  3.5002913E-01  2.5559567E-02 -2.1956569E+01  3.9973183E+01 
      1106      2.6916048E+00 -2.1698382E-02 -3.8717274E-02  7.1546226E-04 -2.4118395E-01 -4.7613572E-01 
      1106 SSD  2.9955123E+01 -6.6881625E-01 -1.5122146E+00  3.2227616E-02 -1.0856540E+01 -2.1534789E+01 
      1107      7.6510837E+00 -2.1603470E-02 -3.1916244E-02  6.1701503E-04 -5.2053181E-01 -5.2048046E-01 
      1107 SSD  2.5837281E+02 -6.7514983E-01 -1.2323492E+00  2.5672735E-02 -2.4393158E+01 -2.4405916E+01 
      1108      1.2525009E+01 -2.1956084E-02 -2.5037208E-02  6.2687426E-04 -7.8493773E-01 -4.4768708E-01 
      1108 SSD  4.9068912E+02 -6.9696211E-01 -9.6044793E-01  2.5725292E-02 -3.7784462E+01 -2.1702835E+01 
      1109      1.6241005E+01 -2.2570806E-02 -1.8317258E-02  6.2233911E-04 -9.8113682E-01 -2.7763744E-01 
      1109 SSD  6.7419968E+02 -7.2602209E-01 -6.9470754E-01  2.5626605E-02 -4.8281534E+01 -1.3986518E+01 
      1110      2.6566587E+00 -2.6652822E-02 -3.2689477E-02  5.5159260E-04 -4.8433535E-01 -2.4354023E-01 
      1110 SSD  2.8932642E+01 -8.9567612E-01 -1.2651416E+00  2.0666134E-02 -2.1797289E+01 -1.0960442E+01 
      1111      3.4568013E-01 -2.5865317E-02 -4.0315958E-02  5.9755100E-04 -2.2474195E-01 -2.1399510E-01 
      1111 SSD -7.4400873E+01 -8.5794372E-01 -1.5789420E+00  2.5602132E-02 -9.7949543E+00 -9.4268718E+00 
      1112      4.9943780E+00 -2.7525093E-02 -2.5432766E-02  6.0843643E-04 -7.3757572E-01 -2.0837585E-01 
      1112 SSD  1.3612687E+02 -9.3433548E-01 -9.8718605E-01  2.2993291E-02 -3.3973800E+01 -9.6175439E+00 
      1113      6.7978508E+00 -2.8465586E-02 -1.8472870E-02  6.3507570E-04 -9.3297744E-01 -1.2757276E-01 
      1113 SSD  2.2111966E+02 -9.7471645E-01 -7.1945440E-01  2.5288185E-02 -4.3707387E+01 -6.0532718E+00 
      1114      1.6222629E+01 -9.9342370E-03 -3.0049171E-02  6.3804225E-04 -2.7443011E-01 -9.8149974E-01 
      1114 SSD  6.7375197E+02 -1.6595158E-01 -1.1515181E+00  2.6712338E-02 -1.3910941E+01 -4.8292895E+01 
      1115      1.2524588E+01 -1.5927942E-02 -3.1023661E-02  6.1552016E-04 -4.4767723E-01 -7.8485715E-01 
      1115 SSD  4.9065371E+02 -4.2690961E-01 -1.1931147E+00  2.6037536E-02 -2.1708444E+01 -3.7790487E+01 
      1116      6.7999295E+00 -1.0195503E-02 -3.6460514E-02  7.6264336E-04 -1.2286196E-01 -9.2852226E-01 
      1116 SSD  2.2122017E+02 -1.5685723E-01 -1.4166640E+00  3.3153884E-02 -5.9316599E+00 -4.3580747E+01 
      1117      5.0180692E+00 -1.5962063E-02 -3.7496735E-02  7.2689401E-04 -2.0770268E-01 -7.3273550E-01 
      1117 SSD  1.3672506E+02 -4.1527205E-01 -1.4611467E+00  3.3227390E-02 -9.6120055E+00 -3.3836623E+01 
      1118      3.1862629E+01 -1.0312932E-02 -1.7384958E-02  6.2831031E-04 -5.0953208E-01 -5.1104923E-01 
      1118 SSD  1.4826347E+03 -2.0878048E-01 -6.3218272E-01  2.6123951E-02 -2.8691505E+01 -2.8730203E+01 
      1119      2.5190525E+01 -9.9903451E-03 -2.3672487E-02  6.3357524E-04 -4.1015543E-01 -8.3048584E-01 
      1119 SSD  1.1255313E+03 -1.8418554E-01 -8.9037629E-01  2.6362136E-02 -2.1840279E+01 -4.3161077E+01 
      1120      2.5203405E+01 -1.6546715E-02 -1.7929558E-02  6.2575682E-04 -8.3000187E-01 -4.1230208E-01 
      1120 SSD  1.1258489E+03 -4.7099764E-01 -6.6460962E-01  2.5941873E-02 -4.3151320E+01 -2.1895414E+01 
      1121      1.9763782E+01 -1.6115316E-02 -2.4424612E-02  6.2623710E-04 -6.6822184E-01 -6.6826870E-01 
      1121 SSD  8.4610931E+02 -4.4574895E-01 -9.2684881E-01  2.6053674E-02 -3.3582749E+01 -3.3583307E+01 

 MAXIMUM          1803.       1.538       1.058       1.768       53.09       53.14    
 AT NODE              1045        1013        1011        1002        1052        1042

 MINIMUM         -143.9      -1.505      -1.739     -0.9180      -53.06      -53.10    
 AT NODE              1001        1002        1022        1040        1087        1048


          INCREMENT NUMBER    3  AT FREQUENCY (CYCLES/TIME) =   520.00000    
  
  
  
  
                                       N O D E   O U T P U T
  
  
  
  
   THE FOLLOWING TABLE IS PRINTED FOR NODES BELONGING TO NODE SET CUBE_ASI
  
       NODE FOOT-  V1             V2             V3             VR1            VR2            VR3          
            NOTE
  
      1001     -1.3516771E+00 -3.6722461E-02  1.9486694E-02  1.5128150E-02  4.4626747E-02 -4.0211841E-02 
      1001 SSD -1.4636929E+02 -1.3148401E+00  9.1319816E-01  6.1351479E-01  1.7219426E+00 -1.6618458E+00 
      1002     -1.3407021E+00 -4.7345542E-02  1.7302062E-02  4.5885630E-02 -1.7917480E-03  1.3443725E-01 
      1002 SSD -1.4590436E+02 -1.6239535E+00  8.5266775E-01  1.9095131E+00  2.0173732E-01  5.3693461E+00 
      1003     -1.3261290E+00 -2.8417757E-02  2.0074026E-02  1.4844595E-02  1.5077598E-03  4.0797775E-01 
      1003 SSD -1.4538968E+02 -9.3944027E-01  9.4442824E-01  6.9138266E-01  1.8591895E-01  1.6444689E+01 
      1004     -1.3237603E+00 -2.3004440E-02  1.9641239E-02  8.2384261E-03 -1.2133145E-02  6.6029005E-01 
      1004 SSD -1.4521381E+02 -7.4061289E-01  9.3482817E-01  4.9003445E-01 -3.3301785E-01  2.6902030E+01 
      1005     -1.3188975E+00 -1.4464696E-02  2.0039474E-02 -1.3032484E-03 -1.8603686E-02  8.3746233E-01 
      1005 SSD -1.4499130E+02 -4.3927782E-01  9.5556431E-01  7.6534491E-02 -8.4118534E-01  3.4427310E+01 
      1006     -1.3171250E+00 -6.3639496E-03  2.0390281E-02 -1.1806470E-02 -1.9774781E-02  8.8934219E-01 
      1006 SSD -1.4488132E+02 -1.2998294E-01  9.8364402E-01 -4.3648185E-01 -9.6276848E-01  3.6689047E+01 
      1007     -1.3198216E+00  8.7108809E-04  2.0488659E-02 -1.7657907E-02 -1.5117627E-02  8.0815309E-01 
      1007 SSD -1.4500048E+02  1.8740093E-01  1.0010190E+00 -8.0054065E-01 -7.3113010E-01  3.3159505E+01 
      1008     -1.3272958E+00  5.9765185E-03  2.0120965E-02 -2.0023381E-02 -7.9064696E-03  6.1866202E-01 
      1008 SSD -1.4530590E+02  4.2942534E-01  9.9575669E-01 -9.2048305E-01 -4.2652050E-01  2.5176284E+01 
      1009     -1.3313495E+00  1.4874609E-02  2.1254828E-02 -1.1979595E-02 -6.0917776E-03  3.6927093E-01 
      1009 SSD -1.4552549E+02  7.8812328E-01  1.0302045E+00 -5.9878433E-01 -2.8586739E-01  1.4942583E+01 
      1010     -1.3488944E+00  1.5009538E-02  2.0831360E-02 -1.6361326E-02  1.8692766E-02  1.1835168E-01 
      1010 SSD -1.4611602E+02  8.5123786E-01  1.0174771E+00 -7.5651948E-01  7.7814131E-01  4.7752589E+00 
      1011     -1.3474782E+00  2.4389147E-02  2.3876021E-02  2.2118575E-02 -4.3948765E-03 -2.2772557E-02 
      1011 SSD -1.4617766E+02  1.2104090E+00  1.1040525E+00  8.5346206E-01 -2.4462446E-01 -8.6494552E-01 
      1012     -1.3423186E+00  2.4662548E-02 -4.7165215E-02  1.5691170E-02 -4.6006442E-02  3.7347059E-02 
      1012 SSD -1.4632386E+02  1.2925473E+00 -1.7305314E+00  6.3418192E-01 -1.7760459E+00  1.5492159E+00 
      1013     -1.3310652E+00  3.5710350E-02 -4.4762235E-02  3.8784831E-02  1.8588190E-03 -1.3243703E-01 
      1013 SSD -1.4586149E+02  1.6168269E+00 -1.6633702E+00  1.6462490E+00 -2.0065997E-01 -5.3033261E+00 
      1014     -1.3166027E+00  1.9679863E-02 -4.6741257E-02  1.6896954E-02 -1.5979934E-03 -4.0525603E-01 
      1014 SSD -1.4536208E+02  1.0141110E+00 -1.7320506E+00  7.6111217E-01 -1.8940015E-01 -1.6356664E+01 
      1015     -1.3144033E+00  1.1921461E-02 -4.6261293E-02  7.7656139E-03  1.2134032E-02 -6.5744273E-01 
      1015 SSD -1.4520419E+02  7.4818356E-01 -1.7206171E+00  4.7810789E-01  3.3205418E-01 -2.6819453E+01 
      1016     -1.3094736E+00  4.2085913E-03 -4.6379224E-02 -1.3775665E-03  1.8636303E-02 -8.3389476E-01 
      1016 SSD -1.4499135E+02  4.7013090E-01 -1.7336540E+00  6.7610230E-02  8.3891734E-01 -3.4323221E+01 
      1017     -1.3076354E+00 -4.0110710E-03 -4.6592261E-02 -1.0634314E-02  2.0158302E-02 -8.8616996E-01 
      1017 SSD -1.4489032E+02  1.6061579E-01 -1.7575066E+00 -3.9810041E-01  9.7699339E-01 -3.6597692E+01 
      1018     -1.3105007E+00 -1.2468581E-02 -4.6820894E-02 -1.6196370E-02  1.5021042E-02 -8.0638246E-01 
      1018 SSD -1.4502805E+02 -1.9505766E-01 -1.7785796E+00 -7.3781860E-01  7.2883914E-01 -3.3128454E+01 
      1019     -1.3181423E+00 -1.7626944E-02 -4.6628088E-02 -2.1468715E-02  7.2256889E-03 -6.1590508E-01 
      1019 SSD -1.4535186E+02 -4.4023695E-01 -1.7787928E+00 -9.8217342E-01  3.9961691E-01 -2.5111063E+01 
      1020     -1.3216212E+00 -2.4614112E-02 -4.7557691E-02 -1.3284092E-02  6.5320736E-03 -3.6546676E-01 
      1020 SSD -1.4556551E+02 -7.4033259E-01 -1.8069008E+00 -6.5376836E-01  3.0200099E-01 -1.4826161E+01 
      1021     -1.3395581E+00 -2.7050536E-02 -4.7061110E-02 -1.2717596E-02 -1.8743472E-02 -1.1834178E-01 
      1021 SSD -1.4618087E+02 -8.7258276E-01 -1.7911416E+00 -6.1948206E-01 -7.8175101E-01 -4.7847806E+00 
      1022     -1.3379976E+00 -3.4396709E-02 -4.9508249E-02  1.6648867E-02  1.4325287E-03  2.5618302E-02 
      1022 SSD -1.4624943E+02 -1.1722481E+00 -1.8600622E+00  6.5731890E-01  1.3418008E-01  9.6193008E-01 
      1023     -1.3306743E+00 -3.5962471E-02 -4.8073450E-02  2.4197085E-02 -1.0362837E-01 -7.1853035E-03 
      1023 SSD -1.4589610E+02 -1.2366502E+00 -1.8050584E+00  1.0794348E+00 -4.2706133E+00 -3.7740105E-01 
      1024     -1.3234212E+00 -3.7232422E-02 -3.7616562E-02  1.8532174E-02 -3.4581749E-01  1.2848953E-03 
      1024 SSD -1.4556742E+02 -1.2773767E+00 -1.3785233E+00  8.3153012E-01 -1.4219989E+01  8.9445084E-02 
      1025     -1.3187845E+00 -3.7766866E-02 -2.9509954E-02  1.0288215E-02 -6.0226869E-01  7.2714218E-03 
      1025 SSD -1.4530500E+02 -1.3008918E+00 -1.0925775E+00  5.6380139E-01 -2.4745454E+01  4.0589662E-01 
      1026     -1.3142826E+00 -3.7991946E-02 -2.1532322E-02  1.7907125E-03 -7.9855168E-01  1.3936701E-02 
      1026 SSD -1.4504860E+02 -1.3197405E+00 -8.0273215E-01  1.8950887E-01 -3.2893220E+01  7.1119976E-01 
      1027     -1.3138123E+00 -3.8116792E-02 -1.4793901E-02 -6.5290673E-03 -8.8959491E-01  1.8555872E-02 
      1027 SSD -1.4496472E+02 -1.3408588E+00 -5.5101265E-01 -2.1969389E-01 -3.6647569E+01  9.3420229E-01 
      1028     -1.3162372E+00 -3.8180714E-02 -7.5600854E-03 -1.2723644E-02 -8.5132792E-01  1.5733939E-02 
      1028 SSD -1.4504973E+02 -1.3536647E+00 -2.4389824E-01 -6.0323463E-01 -3.4756489E+01  7.3377250E-01 
      1029     -1.3221267E+00 -3.8104324E-02 -1.6381661E-03 -1.9252240E-02 -6.8664555E-01  1.0758185E-02 
      1029 SSD -1.4526813E+02 -1.3570064E+00  3.4836515E-02 -9.1907170E-01 -2.7570062E+01  3.0689619E-01 
      1030     -1.3274936E+00 -3.8278732E-02  4.9933934E-03 -1.2701387E-02 -4.4593699E-01 -3.1515553E-03 
      1030 SSD -1.4550286E+02 -1.3625281E+00  3.2371332E-01 -6.4845235E-01 -1.7530393E+01 -2.7213395E-01 
      1031     -1.3429570E+00 -3.8039247E-02  5.8290260E-03 -2.2155488E-02 -1.6317565E-01  3.2328590E-03 
      1031 SSD -1.4601293E+02 -1.3611214E+00  4.0562298E-01 -9.7891293E-01 -6.2054609E+00 -1.3876883E-01 
      1032     -1.3386620E+00  2.5434473E-02  2.0864585E-02  2.3517536E-02  1.0394929E-01  7.6171976E-03 
      1032 SSD -1.4583829E+02  1.2598788E+00  1.0018521E+00  1.0550870E+00  4.2808327E+00  3.8791929E-01 
      1033     -1.3289873E+00  2.6527566E-02  1.1056462E-02  1.8990278E-02  3.4771011E-01 -1.2755640E-03 
      1033 SSD -1.4549754E+02  1.2951967E+00  5.9393577E-01  8.4579657E-01  1.4275326E+01 -9.7066209E-02 
      1034     -1.3223998E+00  2.6943068E-02  3.0703664E-03  1.0269955E-02  6.0539148E-01 -7.0060263E-03 
      1034 SSD -1.4523549E+02  1.3147327E+00  3.1060911E-01  5.6265122E-01  2.4838802E+01 -4.0115365E-01 
      1035     -1.3159404E+00  2.7119959E-02 -4.6610123E-03  1.7378667E-03  8.0125659E-01 -1.4172781E-02 
      1035 SSD -1.4498128E+02  1.3314546E+00  2.7580438E-02  1.8674065E-01  3.2973013E+01 -7.2764914E-01 
      1036     -1.3132608E+00  2.7275179E-02 -1.1130096E-02 -6.6284529E-03  8.9102733E-01 -1.7879785E-02 
      1036 SSD -1.4488666E+02  1.3539466E+00 -2.1383425E-01 -2.2153267E-01  3.6699421E+01 -9.1043166E-01 
      1037     -1.3139426E+00  2.7285969E-02 -1.8222223E-02 -1.2904998E-02  8.5037517E-01 -1.6244184E-02 
      1037 SSD -1.4498669E+02  1.3645846E+00 -5.1714985E-01 -6.1231956E-01  3.4727516E+01 -7.7728450E-01 
      1038     -1.3187121E+00  2.7177188E-02 -2.3999251E-02 -1.9485527E-02  6.8291751E-01 -1.1604522E-02 
      1038 SSD -1.4522625E+02  1.3687098E+00 -7.8889954E-01 -9.2472520E-01  2.7462553E+01 -3.2621461E-01 
      1039     -1.3221975E+00  2.7292549E-02 -3.0795952E-02 -1.2437184E-02  4.4224159E-01  4.1206744E-03 
      1039 SSD -1.4545797E+02  1.3729687E+00 -1.0836916E+00 -6.3901157E-01  1.7426490E+01  2.9789255E-01 
      1040     -1.3337140E+00  2.7373150E-02 -3.0304417E-02 -2.2233586E-02  1.6185080E-01 -1.4506646E-03 
      1040 SSD -1.4591235E+02  1.3804079E+00 -1.1257833E+00 -9.8253351E-01  6.1676955E+00  1.9111013E-01 
      1041      8.7359768E+00 -6.4143027E-03  1.3420397E-02  8.1600481E-04  3.9980207E-03  1.1574838E+00 
      1041 SSD  2.8881450E+02 -1.0193676E-01  6.9664168E-01  3.2096056E-02  2.6587117E-01  5.1706500E+01 
      1042      2.0360406E+01 -6.4796128E-03  6.7392237E-03  6.9631245E-04  2.5136298E-02  1.2026736E+00 
      1042 SSD  8.2138419E+02 -7.8253873E-02  4.2444015E-01  2.8174703E-02  1.3480070E+00  5.6612758E+01 
      1043      3.1229546E+01 -6.2727962E-03  1.2245428E-04  6.8702603E-04  3.8041150E-02  1.0042830E+00 
      1043 SSD  1.3477382E+03 -5.0863731E-02  1.5396998E-01  2.7890797E-02  2.3307230E+00  5.0552712E+01 
      1044      3.9133986E+01 -5.8445946E-03 -6.4489191E-03  6.7984786E-04  3.8724700E-02  5.9985200E-01 
      1044 SSD  1.7598407E+03 -2.0504251E-02 -1.1519489E-01  2.7675383E-02  2.9502868E+00  3.3385241E+01 
      1045      4.2087734E+01 -5.2969147E-03 -1.3009701E-02  6.7806132E-04 -1.1406805E-03 -1.9516757E-03 
      1045 SSD  1.9254099E+03  1.1244372E-02 -3.8381964E-01  2.7615141E-02 -3.4181905E-02 -5.6774064E-02 
      1046      3.9097085E+01 -4.7606566E-03 -1.9579854E-02  6.8058626E-04 -4.0887258E-02 -6.0331572E-01 
      1046 SSD  1.7587468E+03  4.2636990E-02 -6.5269482E-01  2.7684711E-02 -3.0141437E+00 -3.3489427E+01 
      1047      3.1168431E+01 -4.3638159E-03 -2.6183497E-02  6.8969225E-04 -3.9920630E-02 -1.0055506E+00 
      1047 SSD  1.3459041E+03  7.2039573E-02 -9.2271751E-01  2.7960906E-02 -2.3850114E+00 -5.0593426E+01 
      1048      2.0302044E+01 -4.1958406E-03 -3.2883276E-02  7.0397469E-04 -2.6248801E-02 -1.2008249E+00 
      1048 SSD  8.1956653E+02  9.8344173E-02 -1.1955396E+00  2.8385735E-02 -1.3777959E+00 -5.6567965E+01 
      1049      8.7075685E+00 -4.2927846E-03 -3.9795546E-02  8.1450080E-04 -4.0078552E-03 -1.1534207E+00 
      1049 SSD  2.8776671E+02  1.2126294E-01 -1.4745804E+00  3.1865680E-02 -2.6485171E-01 -5.1601072E+01 
      1050      3.9132777E+01  1.7004520E-03 -1.2454826E-02  6.7500432E-04  5.9931888E-01  3.7949821E-02 
      1050 SSD  1.7597467E+03  2.9443118E-01 -3.5179119E-01  2.7504943E-02  3.3382333E+01  2.9286803E+00 
      1051      3.1243035E+01  8.5670632E-03 -1.2015286E-02  6.6972755E-04  1.0022934E+00  3.8257411E-02 
      1051 SSD  1.3479209E+03  5.7293305E-01 -3.2103330E-01  2.7311734E-02  5.0509019E+01  2.3282866E+00 
      1052      2.0398739E+01  1.5243374E-02 -1.1752603E-02  6.6581022E-04  1.2002110E+00  2.8098475E-02 
      1052 SSD  8.2211252E+02  8.4519376E-01 -2.9185504E-01  2.7159442E-02  5.6563355E+01  1.4153195E+00 
      1053      8.7755586E+00  2.1761981E-02 -1.1648828E-02  7.3675802E-04  1.1597191E+00  9.2574324E-03 
      1053 SSD  2.8954835E+02  1.1133520E+00 -2.6293757E-01  3.0501218E-02  5.1757950E+01  3.9009628E-01 
      1054      2.8646978E+01  7.8391465E-03 -5.2977449E-03  6.7352811E-04  9.3001648E-01  4.5623460E-01 
      1054 SSD  1.2130311E+03  5.4001118E-01 -5.0450422E-02  2.7348361E-02  4.5792868E+01  2.3067950E+01 
      1055      2.2569151E+01  7.2802726E-03  1.6699362E-03  6.7555396E-04  7.5107550E-01  7.5119055E-01 
      1055 SSD  9.1654844E+02  5.1068313E-01  2.2508667E-01  2.7536602E-02  3.5731963E+01  3.5736530E+01 
      1056      1.4386563E+01  6.9702824E-03  8.7594615E-03  6.6880025E-04  5.0535356E-01  8.9129643E-01 
      1056 SSD  5.3688452E+02  4.8741841E-01  5.0529352E-01  2.7568562E-02  2.3171234E+01  4.0498421E+01 
      1057      5.8320003E+00  6.9104391E-03  1.5802726E-02  8.1521394E-04  2.3518079E-01  8.3789770E-01 
      1057 SSD  1.5661956E+02  4.7198759E-01  7.9051450E-01  3.5800621E-02  1.0283349E+01  3.6449222E+01 
      1058      2.8641384E+01  6.8187315E-04  9.2416463E-04  6.7995528E-04  4.5544142E-01  9.3033864E-01 
      1058 SSD  1.2129565E+03  2.3453277E-01  1.8937338E-01  2.7784566E-02  2.3058960E+01  4.5797935E+01 
      1059      3.6075434E+01  1.1079101E-03 -5.8293905E-03  6.7704950E-04  5.6413031E-01  5.6436089E-01 
      1059 SSD  1.5904717E+03  2.6277553E-01 -8.2506858E-02  2.7581106E-02  3.0203210E+01  3.0200247E+01 
      1060      1.8543176E+01  5.2003913E-04  7.7560245E-03  6.7877100E-04  3.0615847E-01  1.1098520E+00 
      1060 SSD  7.3180244E+02  2.1201913E-01  4.6386829E-01  2.8043946E-02  1.4746033E+01  5.1592196E+01 
      1061      7.8451870E+00  6.8187904E-04  1.4582820E-02  8.2629427E-04  1.3847170E-01  1.0582948E+00 
      1061 SSD  2.4692429E+02  1.9825890E-01  7.4125561E-01  3.5384720E-02  6.3388457E+00  4.6833432E+01 
      1062      5.8137229E+00  1.9603008E-02  2.6255768E-03  6.6278908E-04  8.4378011E-01  2.3686046E-01 
      1062 SSD  1.5620502E+02  1.0276894E+00  2.8321381E-01  2.3910439E-02  3.6612513E+01  1.0316557E+01 
      1063      1.4391741E+01  1.3630056E-02  2.2662950E-03  6.7233950E-04  8.9050428E-01  5.0536717E-01 
      1063 SSD  5.3706013E+02  7.7783983E-01  2.5782407E-01  2.6991180E-02  4.0466278E+01  2.3165369E+01 
      1064      7.8476667E+00  2.0741875E-02 -4.8389580E-03  6.9888102E-04  1.0622668E+00  1.4191956E-01 
      1064 SSD  2.4687122E+02  1.0737672E+00  2.7691529E-03  2.6745349E-02  4.6941917E+01  6.3998960E+00 
      1065      1.8557812E+01  1.4369011E-02 -4.9443433E-03  6.7226642E-04  1.1086193E+00  3.0753439E-01 
      1065 SSD  7.3207340E+02  8.1052007E-01 -2.1055285E-02  2.7020003E-02  5.1563084E+01  1.4757690E+01 
      1066      4.8998023E-01  1.7114839E-02  1.8644124E-02  5.7541248E-04  2.5999256E-01  2.4717509E-01 
      1066 SSD -7.0801430E+01  9.2759815E-01  9.0551569E-01  2.4809949E-02  1.0650199E+01  1.0231785E+01 
      1067      3.1455663E+00  1.8434299E-02  1.0469094E-02  5.9630379E-04  5.5635140E-01  2.7886730E-01 
      1067 SSD  4.0900623E+01  9.8053098E-01  5.7676681E-01  2.2314385E-02  2.3565452E+01  1.1818130E+01 
      1068      3.1858327E+00  1.3360424E-02  1.6963512E-02  7.8102122E-04  2.7523895E-01  5.4606485E-01 
      1068 SSD  4.2056955E+01  7.4842800E-01  8.3826238E-01  3.4096562E-02  1.1676601E+01  2.3245195E+01 
      1069      8.8580093E+00  1.3208846E-02  9.6764184E-03  6.6594185E-04  5.9308162E-01  5.9364926E-01 
      1069 SSD  2.8811335E+02  7.5370710E-01  5.4430994E-01  2.6968569E-02  2.6206472E+01  2.6238190E+01 
      1070      6.4217504E+00  1.1170076E-02 -3.7084433E-02  6.7482289E-04  2.4501649E-01 -9.0225835E-01 
      1070 SSD  1.8519830E+02  7.0691239E-01 -1.3749894E+00  2.4236251E-02  1.0734150E+01 -3.9411198E+01 
      1071      1.5518423E+01  1.1006010E-02 -3.0843001E-02  6.7612492E-04  5.0110046E-01 -9.3692650E-01 
      1071 SSD  5.9267121E+02  6.8662388E-01 -1.1149393E+00  2.7241661E-02  2.3403036E+01 -4.2670504E+01 
      1072      2.3854208E+01  1.0267672E-02 -2.4714540E-02  6.6568364E-04  7.5321835E-01 -7.5918048E-01 
      1072 SSD  9.8424916E+02  6.4922502E-01 -8.5431781E-01  2.7201432E-02  3.6461989E+01 -3.6614578E+01 
      1073      2.9547412E+01  9.4127852E-03 -1.8515352E-02  6.6456208E-04  9.4027061E-01 -4.1136951E-01 
      1073 SSD  1.2653231E+03  6.0994048E-01 -5.9067943E-01  2.7247184E-02  4.7090163E+01 -2.0872119E+01 
      1074      1.9246715E+01  3.3485105E-03 -3.1858974E-02  7.0142044E-04  2.7511194E-01 -1.1385713E+00 
      1074 SSD  7.6992446E+02  3.9405247E-01 -1.1561119E+00  2.8055218E-02  1.3319088E+01 -5.3304877E+01 
      1075      8.2155533E+00  3.4969943E-03 -3.8545367E-02  7.3383760E-04  1.3727758E-01 -1.1004520E+00 
      1075 SSD  2.6594681E+02  4.2167944E-01 -1.4278588E+00  2.6918022E-02  6.2438950E+00 -4.8970609E+01 
      1076      2.9497444E+01  2.9439303E-03 -2.5377032E-02  6.8318129E-04  4.0735354E-01 -9.4606516E-01 
      1076 SSD  1.2640296E+03  3.6241891E-01 -8.8717973E-01  2.7688640E-02  2.0765353E+01 -4.7233003E+01 
      1077      3.6754478E+01  2.3555199E-03 -1.8967429E-02  6.7544436E-04  5.2972969E-01 -5.3394043E-01 
      1077 SSD  1.6367250E+03  3.2833404E-01 -6.2019726E-01  2.7521827E-02  2.8518904E+01 -2.8634133E+01 
      1078      3.9441743E+00  2.6242415E-02 -3.0397434E-02  5.7817123E-04  6.0552697E-01 -2.9160013E-01 
      1078 SSD  7.3732927E+01  1.2828212E+00 -1.0791634E+00  2.7146241E-02  2.5749726E+01 -1.2439986E+01 
[...]
      1031 SSD  1.4580885E+02  1.1599692E+01  4.5111099E+00  7.7775023E+00  1.0219064E+01  6.3842323E+00 
      1032     -5.7128390E+00 -2.9324925E+00 -2.8850043E+00 -3.9631625E-01 -3.0306266E-02  3.4257296E-01 
      1032 SSD  1.5097501E+02  3.7518626E+00  3.5173829E+00 -2.4985141E-02 -6.2966652E+00 -1.9499689E+00 
      1033     -5.1867449E+00 -2.9755952E+00 -2.4283983E+00  1.1150843E+00  8.9328169E-03 -1.0006678E+00 
      1033 SSD  1.4837455E+02  3.8679033E+00  3.3415393E+00 -5.5280576E+00 -2.0878263E+01  4.0310019E+00 
      1034     -4.5906246E+00 -2.9850376E+00 -1.8970666E+00  1.5023790E+00  9.5500068E-02 -1.4847543E+00 
      1034 SSD  1.4565813E+02  3.8803015E+00  2.7100894E+00 -6.5211290E+00 -3.5162963E+01  6.2986984E+00 
      1035     -4.0643519E+00 -2.9378251E+00 -1.3819359E+00  1.3876742E+00  9.6823344E-02 -1.4870959E+00 
      1035 SSD  1.4338681E+02  3.7039864E+00  2.1746531E+00 -5.4823297E+00 -4.4084705E+01  6.7090945E+00 
      1036     -3.7413584E+00 -2.8503046E+00 -1.0600524E+00  8.3636397E-01  1.2886352E-01 -8.5025363E-01 
      1036 SSD  1.4212585E+02  3.3901924E+00  2.3644912E+00 -2.9093312E+00 -4.6841931E+01  3.9645465E+00 
      1037     -3.6371869E+00 -2.7671778E+00 -9.8957192E-01  1.1651563E-01  1.8183288E-01 -1.4197863E-01 
      1037 SSD  1.4161631E+02  3.0590731E+00  3.3970557E+00 -6.7647624E-02 -4.4641379E+01  9.6327383E-01 
      1038     -3.7070028E+00 -2.7196031E+00 -1.0978874E+00 -6.8581475E-01  2.2413853E-01  7.0527713E-01 
      1038 SSD  1.4213036E+02  2.8687867E+00  5.0289503E+00  3.3723143E+00 -3.7339695E+01 -1.8135237E+00 
      1039     -3.9973308E+00 -2.7807507E+00 -1.4323678E+00 -1.1727959E+00  1.8100351E-01  1.1767864E+00 
      1039 SSD  1.4355575E+02  3.1065254E+00  7.7079614E+00  5.1584873E+00 -2.5256848E+01 -4.4770009E+00 
      1040     -3.9295362E+00 -2.8566027E+00 -1.4162283E+00 -1.7287690E+00  1.0671621E-01  1.8002040E+00 
      1040 SSD  1.4396414E+02  3.4017554E+00  8.6560881E+00  8.1230615E+00 -9.6676083E+00 -6.4878071E+00 
      1041      1.7930406E+02 -2.9984664E+00 -2.7594208E+00 -2.3586950E-02  2.2500415E+00  3.6540022E+01 
      1041 SSD -1.0844990E+03  1.0752124E+01  3.4143619E+00 -4.9401269E-02 -8.1908272E+00 -1.9983163E+02 
      1042      5.9891736E+02 -2.7073271E+00 -2.6223376E+00 -1.5488057E-02  3.0368081E+00  4.8516577E+01 
      1042 SSD -3.2556827E+03  9.6537942E+00  4.2614936E+00 -7.7259832E-02 -1.0153489E+01 -2.3948483E+02 
      1043      1.0452842E+03 -2.4773203E+00 -2.4830776E+00 -1.4890812E-02  2.6116627E+00  4.2231461E+01 
      1043 SSD -5.3902944E+03  8.7722334E+00  5.0965502E+00 -7.9739946E-02 -6.4455468E+00 -1.9331288E+02 
      1044      1.3712055E+03 -2.3046836E+00 -2.3373978E+00 -1.4637044E-02  1.5436925E+00  2.4093298E+01 
      1044 SSD -6.8266607E+03  8.0954885E+00  5.9004096E+00 -8.0551879E-02 -3.5546350E-01 -9.8072410E+01 
      1045      1.4882371E+03 -2.1651037E+00 -2.1879078E+00 -1.4568273E-02  7.5040551E-02 -2.8926994E-01 
      1045 SSD -7.2990128E+03  7.5364140E+00  6.6873626E+00 -8.0816963E-02  2.5108168E-01  1.5233345E+00 
      1046      1.3659290E+03 -2.0247813E+00 -2.0391851E+00 -1.4660058E-02 -1.4234044E+00 -2.4596448E+01 
      1046 SSD -6.7989334E+03  6.9754175E+00  7.4779747E+00 -8.0620801E-02  9.2909608E-01  1.0065377E+02 
      1047      1.0364978E+03 -1.8498575E+00 -1.8952417E+00 -1.4944628E-02 -2.5683411E+00 -4.2445995E+01 
      1047 SSD -5.3448448E+03  6.2926362E+00  8.2909574E+00 -7.9891991E-02  7.1640395E+00  1.9430175E+02 
      1048      5.8989218E+02 -1.6154381E+00 -1.7579355E+00 -1.5559838E-02 -3.0691518E+00 -4.8345717E+01 
      1048 SSD -3.2104275E+03  5.3983561E+00  9.1391000E+00 -7.7886401E-02  1.0869182E+01  2.3841284E+02 
      1049      1.7366441E+02 -1.3176763E+00 -1.6213882E+00 -2.4292036E-02 -2.3289147E+00 -3.6019757E+01 
      1049 SSD -1.0577451E+03  4.2793713E+00  1.0000510E+01 -4.8723053E-02  8.7127779E+00  1.9715500E+02 
      1050      1.3674516E+03 -2.3101523E+00 -2.0586695E+00 -1.4531518E-02  2.4489088E+01  1.1912133E+00 
      1050 SSD -6.8130131E+03  6.7166999E+00  6.1647308E+00 -8.0910502E-02 -9.9545439E+01  8.9253665E-01 
      1051      1.0380329E+03 -2.4516595E+00 -1.8952273E+00 -1.4712634E-02  4.2488319E+01  2.1330176E+00 
      1051 SSD -5.3633255E+03  5.8832687E+00  5.5216682E+00 -7.9993942E-02 -1.9429456E+02 -4.5899804E+00 
      1052      5.9007052E+02 -2.5894546E+00 -1.6740668E+00 -1.5473465E-02  4.8545601E+01  2.2322438E+00 
      1052 SSD -3.2225032E+03  5.0421642E+00  4.6738867E+00 -7.6633544E-02 -2.3962270E+02 -6.8760079E+00 
      1053      1.7284821E+02 -2.7264871E+00 -1.3943496E+00 -2.1236396E-02  3.6112419E+01  1.1556681E+00 
      1053 SSD -1.0603605E+03  4.2110380E+00  3.6219925E+00 -5.7158802E-02 -1.9824981E+02 -3.6619468E+00 
      1054      9.2749306E+02 -2.5288002E+00 -2.0900892E+00 -1.5525531E-02  3.9607825E+01  1.8788634E+01 
      1054 SSD -4.9023373E+03  6.2224599E+00  4.9015418E+00 -7.7288548E-02 -1.8516256E+02 -8.3239568E+01 
      1055      6.7756598E+02 -2.6367423E+00 -2.3376214E+00 -1.3658534E-02  3.0654181E+01  3.0750716E+01 
      1055 SSD -3.7294748E+03  6.6729972E+00  4.4670847E+00 -8.4397650E-02 -1.4889468E+02 -1.4950055E+02 
      1056      3.5741474E+02 -2.7908713E+00 -2.5798241E+00 -9.4099991E-03  1.7961015E+01  3.3671334E+01 
      1056 SSD -2.1123303E+03  7.2932991E+00  4.0071477E+00 -1.0019040E-01 -9.2584447E+01 -1.7565666E+02 
      1057      8.2871940E+01 -2.9869900E+00 -2.7336864E+00  5.7618777E-03  5.2367166E+00  2.2486137E+01 
      1057 SSD -5.9182513E+02  8.0718191E+00  3.2155997E+00 -1.6503105E-01 -3.1866745E+01 -1.3412120E+02 
      1058      9.2978725E+02 -2.5882068E+00 -2.4203496E+00 -1.3254939E-02  1.9241438E+01  3.9590002E+01 
      1058 SSD -4.9101964E+03  7.8380361E+00  4.8143645E+00 -8.5634029E-02 -8.4949365E+01 -1.8524536E+02 
      1059      1.2424997E+03 -2.4321790E+00 -2.2279228E+00 -1.4478714E-02  2.3704216E+01  2.3346122E+01 
      1059 SSD -6.3199922E+03  7.2153700E+00  5.4498775E+00 -8.1132842E-02 -9.9407634E+01 -9.8121878E+01 
      1060      5.1466935E+02 -2.7988922E+00 -2.6065651E+00 -9.9588424E-03  1.2241695E+01  4.4510405E+01 
      1060 SSD -2.8875439E+03  8.6610637E+00  4.1493449E+00 -9.7264523E-02 -5.6878440E+01 -2.2371933E+02 
      1061      1.3991000E+02 -3.0630970E+00 -2.7461261E+00 -5.1509974E-03  4.4262376E+00  3.1799350E+01 
      1061 SSD -9.0335622E+02  9.6842662E+00  3.3123929E+00 -1.1862753E-01 -2.2335727E+01 -1.7923564E+02 
      1062      9.1466931E+01 -2.7739764E+00 -2.0660968E+00 -4.7291092E-02  2.1909722E+01  4.8781514E+00 
      1062 SSD -6.2911631E+02  4.5037332E+00  3.3896509E+00  4.3962942E-02 -1.3203343E+02 -3.0515898E+01 
      1063      3.6033492E+02 -2.6683454E+00 -2.2191190E+00 -1.9209937E-02  3.3102034E+01  1.7958864E+01 
      1063 SSD -2.1264020E+03  5.4428403E+00  3.9918944E+00 -6.3957122E-02 -1.7307460E+02 -9.2721994E+01 
      1064      1.4271072E+02 -2.7512774E+00 -1.6631943E+00 -3.5978545E-02  3.1426200E+01  3.3934551E+00 
      1064 SSD -9.1741949E+02  4.3656821E+00  3.2653074E+00 -2.8062051E-03 -1.7793924E+02 -1.8074382E+01 
      1065      5.1360017E+02 -2.6186573E+00 -1.9023751E+00 -1.9133904E-02  4.4192323E+01  1.1493107E+01 
      1065 SSD -2.8860330E+03  5.2087536E+00  4.1756547E+00 -6.3859337E-02 -2.2228253E+02 -5.3813729E+01 
      1066     -4.1069913E+00 -2.7930758E+00 -2.7706635E+00 -2.6046409E-03  8.6801121E-01  2.2784484E+00 
      1066 SSD  3.6949188E+01  4.7010914E+00  3.2076577E+00 -1.2622717E-01 -1.8305283E+01 -2.3542531E+01 
      1067      3.4412640E+01 -2.7903997E+00 -2.4779075E+00 -3.6147075E-02  1.0212106E+01  4.6445022E+00 
      1067 SSD -2.6599261E+02  4.6230822E+00  3.5465218E+00  5.8215183E-03 -7.1642102E+01 -3.3635013E+01 
      1068      2.6607019E+01 -2.8346480E+00 -2.7396730E+00  5.4905202E-03  4.2532605E+00  1.1247970E+01 
      1068 SSD -2.3443825E+02  6.1152434E+00  3.1794915E+00 -1.6683361E-01 -3.1602922E+01 -7.5450582E+01 
      1069      1.7378232E+02 -2.7443345E+00 -2.5361938E+00 -1.5526666E-02  1.8180446E+01  1.8877518E+01 
      1069 SSD -1.1241759E+03  5.7638281E+00  3.8037409E+00 -7.7602828E-02 -1.0235415E+02 -1.0550083E+02 
      1070      1.6294542E+02 -1.9742334E+00 -1.5998408E+00 -3.7862999E-02  3.2579421E+00 -2.7814656E+01 
      1070 SSD -9.1758095E+02  3.9529754E+00  9.7721509E+00  5.5227885E-03 -2.3971118E+01  1.5492713E+02 
      1071      4.6955543E+02 -2.1517543E+00 -1.6959114E+00 -1.7783074E-02  1.5766304E+01 -3.3491256E+01 
      1071 SSD -2.5462473E+03  4.6301489E+00  8.7739456E+00 -7.0036718E-02 -8.2206418E+01  1.7248064E+02 
      1072      7.7302487E+02 -2.2860048E+00 -1.7244848E+00 -1.3688267E-02  2.8683686E+01 -2.8272420E+01 
      1072 SSD -4.0609337E+03  5.1696717E+00  7.5417098E+00 -8.4177050E-02 -1.3854754E+02  1.3723201E+02 
      1073      9.8161014E+02 -2.3792968E+00 -1.7774242E+00 -1.3441281E-02  3.8521534E+01 -1.5034688E+01 
      1073 SSD -5.0615747E+03  5.5624736E+00  6.4149980E+00 -8.4503523E-02 -1.7764822E+02  7.1376574E+01 
      1074      5.7773134E+02 -1.8427277E+00 -1.7378933E+00 -1.8061141E-02  7.0039137E+00 -4.4464835E+01 
      1074 SSD -3.1119139E+03  4.8807732E+00  8.9977684E+00 -6.9645306E-02 -3.7136851E+01  2.2073237E+02 
      1075      1.8454673E+02 -1.5858757E+00 -1.6040867E+00 -3.6226945E-02  4.9426188E-01 -3.4775828E+01 
      1075 SSD -1.0772143E+03  3.9233948E+00  9.8637789E+00 -3.0291866E-03 -7.1320217E+00  1.8972279E+02 
      1076      9.8312442E+02 -2.0427476E+00 -1.8268988E+00 -1.5243067E-02  1.4914884E+01 -3.8156901E+01 
      1076 SSD -5.0626517E+03  5.6455118E+00  7.9785813E+00 -7.8958823E-02 -7.0224947E+01  1.7647437E+02 
      1077      1.2726719E+03 -2.1907938E+00 -1.9264544E+00 -1.4446760E-02  2.1258057E+01 -2.1319010E+01 
      1077 SSD -6.3708706E+03  6.2301474E+00  7.0113527E+00 -8.1321732E-02 -9.1776704E+01  9.2725877E+01 
      1078      9.8205776E+01 -2.6548959E+00 -1.5197681E+00  1.0094574E-02  1.7560637E+01 -4.9504388E+00 
      1078 SSD -5.4289013E+02  3.6836202E+00  8.0494910E+00 -1.7387280E-01 -1.0190951E+02  3.4109766E+01 
      1079      2.9137606E+02 -2.4852665E+00 -1.6118791E+00 -1.0573112E-02  2.0187534E+01 -1.8926346E+01 
      1079 SSD -1.6077931E+03  4.4766175E+00  8.3995294E+00 -9.6602910E-02 -1.0907935E+02  1.0432606E+02 
      1080      4.2555743E+01 -2.6538474E+00 -1.5505269E+00  3.8657383E-03  6.4211065E+00 -4.2594079E+00 
      1080 SSD -1.7016650E+02  3.5355186E+00  9.4183986E+00 -1.3743784E-01 -4.0898114E+01  3.2951418E+01 
      1081      1.1104110E+02 -2.4425697E+00 -1.5606717E+00 -2.4025860E-02  5.7706091E+00 -1.6499328E+01 
      1081 SSD -5.9085589E+02  4.2821625E+00  9.4994248E+00 -3.7675254E-02 -3.7299283E+01  9.7978168E+01 
      1082      1.4742747E+02 -2.6864491E+00 -1.3690204E+00  9.9520591E-03  2.8155996E+01 -3.5230418E+00 
      1082 SSD -8.5843556E+02  3.9248925E+00  6.1345570E+00 -1.7546199E-01 -1.5647516E+02  2.4813193E+01 
      1083      4.6175971E+02 -2.5346001E+00 -1.5679023E+00 -8.1598902E-03  3.4623980E+01 -1.5386177E+01 
      1083 SSD -2.5177196E+03  4.7222639E+00  6.9089066E+00 -1.0401581E-01 -1.7682091E+02  8.0950403E+01 
      1084      1.7440523E+02 -2.7010179E+00 -1.3056211E+00 -4.4775508E-03  3.4888926E+01 -1.4251406E+00 
      1084 SSD -1.0398889E+03  4.0462829E+00  4.6066117E+00 -1.1907725E-01 -1.9055791E+02  1.1006989E+01 
      1085      5.7103066E+02 -2.5660944E+00 -1.5701041E+00 -1.0736432E-02  4.5085882E+01 -7.5423592E+00 
      1085 SSD -3.0910744E+03  4.8954424E+00  5.6108707E+00 -9.3617184E-02 -2.2336107E+02  3.9757485E+01 
      1086      1.7782073E+02 -1.5987796E+00 -2.9679956E+00 -1.6568692E-02 -3.6171719E+01 -1.1898534E+00 
      1086 SSD -1.0700136E+03  1.0833335E+01  9.7084098E+00 -7.3192676E-02  1.9750596E+02  4.1454335E+00 
      1087      5.9453431E+02 -1.7394631E+00 -2.6933820E+00 -1.4307854E-02 -4.8400169E+01 -2.4941151E+00 
      1087 SSD -3.2235622E+03  1.0018442E+01  8.6740863E+00 -8.0859760E-02  2.3867216E+02  8.4998597E+00 
      1088      1.0410081E+03 -1.8787847E+00 -2.4765138E+00 -1.4845074E-02 -4.2313236E+01 -2.5797696E+00 
      1088 SSD -5.3586756E+03  9.1871089E+00  7.8401508E+00 -7.9510420E-02  1.9398234E+02  7.0740230E+00 
      1089      1.3688680E+03 -2.0203759E+00 -2.3160377E+00 -1.4345148E-02 -2.4327076E+01 -1.7379217E+00 
      1089 SSD -6.8086639E+03  8.3564731E+00  7.2065143E+00 -8.1587777E-02  9.9812502E+01  2.0194637E+00 
      1090      5.7752951E+02 -1.7645229E+00 -2.8011829E+00 -1.0035168E-02 -4.5152307E+01  7.3949397E+00 
      1090 SSD -3.1060323E+03  1.0167703E+01  7.7480940E+00 -9.6254464E-02  2.2344493E+02 -3.8564098E+01 
      1091      4.6861079E+02 -1.7989196E+00 -2.8056789E+00 -8.1728369E-03 -3.4820222E+01  1.5482778E+01 
      1091 SSD -2.5397907E+03  1.0347115E+01  6.4544447E+00 -1.0510145E-01  1.7757352E+02 -8.0771426E+01 
      1092      2.9663488E+02 -1.8523685E+00 -2.7679141E+00 -1.2269747E-02 -2.0421718E+01  1.9191366E+01 
      1092 SSD -1.6276349E+03  1.0603053E+01  4.9858022E+00 -9.1480879E-02  1.0998592E+02 -1.0510108E+02 
      1093      1.1327901E+02 -1.9023301E+00 -2.8232707E+00 -2.4309610E-02 -5.9301251E+00  1.6869494E+01 
      1093 SSD -6.0028747E+02  1.0823224E+01  3.9050004E+00 -4.4801323E-02  3.7907402E+01 -9.9379227E+01 
      1094      1.5175327E+02 -1.6422713E+00 -2.9985311E+00  1.0110649E-02 -2.8500398E+01  3.6968212E+00 
      1094 SSD -8.7251669E+02  1.1130660E+01  7.2059174E+00 -1.7695918E-01  1.5742857E+02 -2.5155777E+01 
      1095      1.7959919E+02 -1.6239532E+00 -3.0622623E+00 -5.0614813E-04 -3.5102681E+01  1.4733994E+00 
      1095 SSD -1.0538198E+03  1.0994566E+01  8.7403226E+00 -1.3311900E-01  1.9074273E+02 -1.0835122E+01 
      1096      1.0086327E+02 -1.6778485E+00 -2.8532228E+00  5.5361143E-03 -1.7898391E+01  5.1482925E+00 
      1096 SSD -5.5310862E+02  1.1381575E+01  5.3001980E+00 -1.5526632E-01  1.0311257E+02 -3.4678765E+01 
      1097      4.3227805E+01 -1.6987036E+00 -2.8193956E+00 -6.4913629E-03 -6.5869188E+00  4.5000064E+00 
      1097 SSD -1.7372518E+02  1.1625440E+01  3.8930630E+00 -9.3260909E-02  4.1517496E+01 -3.3874869E+01 
      1098      9.9194905E+02 -2.2890454E+00 -2.5522649E+00 -1.5394251E-02 -1.4948257E+01  3.8039975E+01 
      1098 SSD -5.1001540E+03  9.4309952E+00  5.4095859E+00 -7.8190188E-02  7.1110470E+01 -1.7564372E+02 
      1099      7.8123890E+02 -2.0486520E+00 -2.6530292E+00 -1.3850127E-02 -2.8784051E+01  2.8259388E+01 
      1099 SSD -4.0902925E+03  9.9127926E+00  5.8373164E+00 -8.3269806E-02  1.3933482E+02 -1.3665517E+02 
      1100      1.2788246E+03 -2.1406970E+00 -2.4501052E+00 -1.4336382E-02 -2.1183383E+01  2.0896584E+01 
      1100 SSD -6.3924683E+03  8.8450871E+00  6.3660087E+00 -8.1596639E-02  9.2370874E+01 -9.0374069E+01 
      1101      9.8825092E+02 -1.9530933E+00 -2.5970834E+00 -1.3603921E-02 -3.8486445E+01  1.4737127E+01 
      1101 SSD -5.0785024E+03  9.5123762E+00  6.9545319E+00 -8.3810197E-02  1.7794465E+02 -6.9485404E+01 
      1102      1.8933437E+02 -2.7434379E+00 -2.7762851E+00 -3.6697407E-02 -6.1974711E-01  3.5293221E+01 
      1102 SSD -1.0984803E+03  1.1148664E+01  3.5447975E+00 -5.3255122E-04  7.8063335E+00 -1.9205248E+02 
      1103      5.8608606E+02 -2.4885756E+00 -2.6442215E+00 -1.8707250E-02 -7.1226785E+00  4.4688600E+01 
      1103 SSD -3.1491404E+03  1.0195382E+01  4.4061106E+00 -6.6804480E-02  3.8095168E+01 -2.2167643E+02 
      1104      1.6653833E+02 -2.3655097E+00 -2.7847369E+00 -3.7835510E-02 -3.4055881E+00  2.8272637E+01 
      1104 SSD -9.3272872E+02  1.1158692E+01  3.6368683E+00  6.8725278E-03  2.4606618E+01 -1.5679224E+02 
      1105      4.7662506E+02 -2.1853411E+00 -2.6861853E+00 -1.7847929E-02 -1.5928738E+01  3.3760154E+01 
      1105 SSD -2.5745959E+03  1.0463891E+01  4.6236133E+00 -6.9085524E-02  8.3103669E+01 -1.7334634E+02 
      1106      2.5026856E+01 -1.4782358E+00 -1.6317334E+00  1.0021173E-02 -3.9869085E+00 -1.1133835E+01 
      1106 SSD -2.2261742E+02  8.8995902E+00  1.0205612E+01 -1.8381336E-01  3.0352749E+01  7.4114275E+01 
      1107      1.7155750E+02 -1.5756520E+00 -1.8337509E+00 -1.2803710E-02 -1.7704893E+01 -1.8902883E+01 
      1107 SSD -1.1010032E+03  9.2761699E+00  9.5712479E+00 -8.8243154E-02  9.9950660E+01  1.0467908E+02 
      1108      3.5911914E+02 -1.6557507E+00 -2.1481638E+00 -1.8663254E-02 -3.2611834E+01 -1.8183372E+01 
      1108 SSD -2.1008214E+03  9.6080119E+00  9.3667060E+00 -6.6122564E-02  1.7049157E+02  9.3250737E+01 
      1109      5.1509828E+02 -1.7080369E+00 -2.4640886E+00 -1.8275587E-02 -4.3836532E+01 -1.1844018E+01 
      1109 SSD -2.8709365E+03  9.8474260E+00  9.1733489E+00 -6.6998953E-02  2.2034359E+02  5.5529130E+01 
      1110      3.6094742E+01 -1.5395871E+00 -1.8896828E+00 -3.7061880E-02 -9.8475341E+00 -4.7583392E+00 
      1110 SSD -2.6527761E+02  1.0459535E+01  9.8257746E+00  9.5466501E-03  6.9336095E+01  3.3560647E+01 
      1111     -2.9944119E+00 -1.5376738E+00 -1.5961593E+00 -5.9782848E-03 -5.4779656E-01 -2.3501799E+00 
      1111 SSD  3.4804086E+01  1.0406881E+01  1.0168219E+01 -1.1636720E-01  1.6648324E+01  2.3287843E+01 
      1112      9.4099423E+01 -1.5537364E+00 -2.2971102E+00 -4.1084739E-02 -2.1588488E+01 -5.0089579E+00 
      1112 SSD -6.2806957E+02  1.0557937E+01  9.9579674E+00  2.0143617E-02  1.2952372E+02  3.0772351E+01 
      1113      1.4666007E+02 -1.5738993E+00 -2.6984501E+00 -3.2105414E-02 -3.1277614E+01 -3.5424172E+00 
      1113 SSD -9.2075298E+02  1.0680702E+01  1.0067489E+01 -1.6108542E-02  1.7609873E+02  1.8803903E+01 
      1114      5.0613632E+02 -1.5218897E+00 -1.7700561E+00 -1.0789035E-02 -1.2108432E+01 -4.4393943E+01 
      1114 SSD -2.8391301E+03  6.3918120E+00  9.2407883E+00 -9.5083550E-02  5.6807573E+01  2.2250851E+02 
      1115      3.5122173E+02 -1.5308518E+00 -1.7931090E+00 -7.4202295E-03 -1.7614918E+01 -3.3602659E+01 
      1115 SSD -2.0708676E+03  7.7627721E+00  9.3737279E+00 -1.0766968E-01  9.1258919E+01  1.7439720E+02 
      1116      1.3442680E+02 -1.2521558E+00 -1.6325619E+00 -6.9300956E-03 -4.3471826E+00 -3.1299279E+01 
      1116 SSD -8.7539173E+02  5.3572632E+00  1.0093790E+01 -1.1346878E-01  2.2165569E+01  1.7631293E+02 
      1117      7.8911920E+01 -1.3309678E+00 -1.6377676E+00  9.8288950E-03 -5.0246591E+00 -2.2117872E+01 
      1117 SSD -5.6928817E+02  6.9793395E+00  1.0160310E+01 -1.7999116E-01  3.1033256E+01  1.3159049E+02 
      1118      1.2386722E+03 -1.8963364E+00 -2.1465189E+00 -1.4419459E-02 -2.3506388E+01 -2.3878803E+01 
      1118 SSD -6.2885481E+03  7.8535332E+00  7.9226735E+00 -8.1519502E-02  9.9492076E+01  1.0073499E+02 
      1119      9.2201077E+02 -1.7371248E+00 -1.9549119E+00 -1.3550856E-02 -1.9070284E+01 -3.9871416E+01 
      1119 SSD -4.8608204E+03  7.2242562E+00  8.5650783E+00 -8.4954134E-02  8.5006076E+01  1.8627711E+02 
      1120      9.2593200E+02 -1.7991322E+00 -2.2808156E+00 -1.5565460E-02 -3.9317052E+01 -1.9283907E+01 
      1120 SSD -4.8740586E+03  8.8426815E+00  8.4609454E+00 -7.7234567E-02  1.8431689E+02  8.5630395E+01 
      1121      6.7229113E+02 -1.6882494E+00 -2.0338697E+00 -1.3639434E-02 -3.0298183E+01 -3.1030661E+01 
      1121 SSD -3.6855423E+03  8.3870778E+00  8.9027814E+00 -8.4649695E-02  1.4767971E+02  1.5034667E+02 

 MAXIMUM          1488.       12.59       12.13       8.123       238.7       238.4    
 AT NODE              1045        1002        1012        1040        1087        1048

 MINIMUM         -7299.      -3.356      -3.381      -6.521      -239.6      -239.5    
 AT NODE              1045        1007        1028        1034        1052        1042


          THE ANALYSIS HAS BEEN COMPLETED



                              ANALYSIS COMPLETE
                              WITH     51 WARNING MESSAGES ON THE MSG FILE
                                       51 WARNINGS ARE FOR NEGATIVE EIGENVALUES



     JOB TIME SUMMARY
       USER TIME (SEC)      =      7.0    
       SYSTEM TIME (SEC)    =     0.70    
       TOTAL CPU TIME (SEC) =      7.7    
       WALLCLOCK TIME (SEC) =            5
