1

   Abaqus 2022.HF11                                  Date 22-Oct-2024   Time 15:12:16
   For use by WOELFEL under license from Dassault Systemes or its subsidiary.



                         The Abaqus Software is a product of:

                           Dassault Systemes SIMULIA Corp.
                           1301 Atwood Avenue, Suite 101W
                              Johnston, RI 02919, USA
 


                   The Abaqus Software is available only under license
                   from Dassault Systemes or its subsidiary and may be
                   used or reproduced only in accordance with the terms
                   of such license.
 
                          On machine KOHLSTETTERIX 
                          you are authorized to run
                          Abaqus until 30-Jun-2025

                          Your site id is: 200000000053191 


 
                    For assistance or any other information you may
                    obtain contact information for your local office
                    from the world wide web at:

                      http://www.3ds.com/products/simulia/locations/

 
                * * * * * * * * * * * * * * * * * * * * * * * * * * * * * * 
                *                                                         * 
                *                   *****************                     * 
                *                   *  N O T I C E  *                     * 
                *                   *****************                     * 
                *                                                         * 
                *                                                         * 
                *                    Abaqus 2022.HF11                     * 
                *                                                         * 
                *       BUILD ID: 2023_10_26-15.11.10 RELr424 177048      * 
                *                                                         * 
                *                                                         * 
                *  Please make sure you are using                         * 
                *  release Abaqus 2022.HF11 manuals                       * 
                *  plus the notes accompanying this release.              * 
                *                                                         * 
                *                                                         * 
                *                                                         * 
                *                                                         * 
                * * * * * * * * * * * * * * * * * * * * * * * * * * * * * * 


 



     PROCESSING PART, INSTANCE, AND ASSEMBLY INFORMATION
   *******************************************************


     END PROCESSING PART, INSTANCE, AND ASSEMBLY INFORMATION
   ***********************************************************




     OPTIONS BEING PROCESSED
   ***************************


  *INCLUDE, INPUT ="../MODEL/cavity.inp"
  *NODE
  *ELEMENT,TYPE=ASI3D3,ELSET=asi
  *ELEMENT,TYPE=AC3D4,ELSET=cavity
  *Nset,nset=asi,elset=asi
  *INCLUDE, INPUT ="../MODEL/outer_infinite.inp"
  *NODE
  *ELEMENT,TYPE=ACIN3D3,ELSET=outer_infinite
  *Nset,nset=por,elset=outer_infinite
  *INCLUDE, INPUT ="../MODEL/cube.inp"
  *NODE
  *ELEMENT,TYPE=S3,ELSET=cube

 ***NOTE: ELEMENT TYPES S3 AND S3R ARE IDENTICAL. ELEMENT TYPE S3 WILL BE 
          REFERRED TO AS S3R FROM HERE ON
  *NSET, NSET=accn
  *NSET, NSET=cube_asi
  *ELSET, ELSET=cube_asi
  *ELSET, ELSET = _str_acou_SNEG
  *MATERIAL, NAME=air
  *DENSITY
  *ACOUSTIC MEDIUM, BULK MODULUS
  *MATERIAL, NAME=steel
  *DENSITY
  *DAMPING, STRUCTURAL = 0.01
  *ELASTIC, TYPE = ISOTROPIC
  *Interface,elset=asi
  *SOLID SECTION, ELSET=cavity, MATERIAL=air
  *SOLID SECTION, ELSET=outer_infinite, REF NODE =     804626, MATERIAL=air
  *SHELL SECTION, ELSET=cube, MATERIAL=steel
  *SOLID SECTION, ELSET=cavity, MATERIAL=air
  *SOLID SECTION, ELSET=outer_infinite, REF NODE =     804626, MATERIAL=air
  *SHELL SECTION, ELSET=cube, MATERIAL=steel
  *Surface, NAME = str_acou, TYPE = ELEMENT
  *Surface, NAME = str_acou, TYPE = ELEMENT
  *Boundary,submodel, step=1
  *Boundary,submodel, step=1
  *SOLID SECTION, ELSET=cavity, MATERIAL=air
  *SOLID SECTION, ELSET=outer_infinite, REF NODE =     804626, MATERIAL=air
  *Interface,elset=asi
  *Surface, NAME = str_acou, TYPE = ELEMENT
  *Output,field,frequency=1
  *OUTPUT, HISTORY, frequency=1
  *Submodel, absolute=1.e-3,global elset=cube_asi
  *Submodel, absolute=1.e-3,global elset=cube_asi
  *Output,field,frequency=1
  *OUTPUT, HISTORY, frequency=1
  *Output,field,frequency=1
  *OUTPUT, HISTORY, frequency=1
  
                               E L E M E N T   Q U A L I T Y  C H E C K S        
  
  
 ***NOTES: DISTORTED ISOPARAMETRIC ELEMENTS: ANGLE BETWEEN ISOPARAMETRIC LINES 
           IS LESS THAN 45 DEGREES OR GREATER THAN 135 DEGREES.
  
           TETRAHEDRAL QUALITY MEASURE: VOLUME OF TETRAHEDRON DIVIDED BY THE 
           VOLUME OF EQUILATERAL TETRAHEDRON WITH SAME CIRCUMSPHERE RADIUS; 
           0 FOR DEGENERATE TETRAHEDRON AND 1 FOR EQUILATERIAL TETRAHEDRON. IT 
           IS RECOMMENDED THAT THE TETRAHEDRAL QUALITY MEASURE BE GREATER THAN 
           0.02, THE MIN INTERIOR (DIHEDRAL) ANGLE BE GREATER THAN 10 DEGREES, 
           AND THE MAX INTERIOR (DIHEDRAL) ANGLE BE LESS THAN 160 DEGREES. 
  
           MODIFIED TETRAHEDRAL QUALITY MEASURE: ANGLES BETWEEN THE TWO LINE 
           SEGMENTS ON EACH EDGE; THE EDGES OF MODIFIED TETRAHEDRAL SHOULD BE 
           AS STRAIGHT AS POSSIBLE. IT IS RECOMMENDED THAT THE ANGLE BETWEEN 
           THE TWO LINE SEGMENTS ON EACH EDGE IS BETWEEN 160 AND 180 DEGREES. 
  
           TRIANGULAR QUALITY MEASURE: AREA OF TRIANGLE DIVIDED BY THE AREA OF 
           EQUILATERAL TRIANGLE WITH SAME CIRCUMCIRCLE RADIUS; 0 FOR DEGENERATE 
           TRIANGLE AND 1 FOR EQUILATERAL TRIANGLE. IT IS RECOMMENDED THAT THE
           TRIANGULAR QUALITY MEASURE BE GREATER THAN 0.01, THE MIN INTERIOR 
           ANGLE BE GREATER THAN 10 DEGREES, AND THE MAX INTERIOR ANGLE BE LESS 
           THAN 160 DEGREES. 
  
           NODAL ADJUSTMENTS ARISING FROM CONTACT INTERACTIONS AND/OR TIE 
           CONSTRAINTS CAN CAUSE SEVERE ELEMENT DISTORTION. IT MAY BE NECESSARY 
           TO REMESH IN ORDER TO REDUCE THE AMOUNT OF ADJUSTMENT. 

 ***WARNING: 19 elements are distorted. Either the isoparametric angles are out 
             of the suggested limits or the triangular or tetrahedral quality 
             measure is bad. The elements have been identified in element set 
             WarnElemDistorted.
  
 --------------------------------------------------------------------------------
 Distorted tetrahedral elements
  
  Element  Quality measure     Min angle        Max angle     Adjusted nodes 
 --------- ---------------- ---------------- ---------------- -------------- 
    804954        0.0338099          12.3862          164.443       NO       
    805382        0.0725062          13.7517          161.845       NO       
  
 --------------------------------------------------------------------------------
 Distorted isoparametric elements
  
  Element   Min/max angle   Adjusted nodes 
 --------- ---------------- -------------- 
    900094          31.0856       NO       
    900146          40.0748       NO       
    900281          36.1221       NO       
    900446          42.2089       NO       
    900468          35.1302       NO       
    900547          41.3469       NO       
    900555          43.6314       NO       
    900737          43.5065       NO       
    900808          39.0165       NO       
    900903          44.2131       NO       
    901007          35.9052       NO       
    901109          44.0836       NO       
    901183          43.7633       NO       
    901190          43.0105       NO       
    901319          35.2157       NO       
    901338          39.9994       NO       
    901641            39.28       NO       
  
  
  *Step
  *Steady State Dynamics, direct, frequency scale=linear
  *Output,field,frequency=1
  *OUTPUT, HISTORY, frequency=1
  *Step
  *Step
   Step-1: Frequency Response                                                     
  *Steady State Dynamics, direct, frequency scale=linear
  *Boundary,submodel, step=1
  *Output,field,frequency=1
  *Node output
  *OUTPUT, HISTORY, frequency=1
  *ENERGY OUTPUT
  *NODE OUTPUT, NSET = por
  *NODE PRINT, NSET = por, FREQUENCY = 1
  *End step
  *Step
  *Steady State Dynamics, direct, frequency scale=linear
  *Steady State Dynamics, direct, frequency scale=linear
  *Boundary,submodel, step=1

 ***WARNING: SUBMODEL HAS MORE ACTIVE DEGREES OF FREEDOM THAN THE GLOBAL MODEL.

 ***NOTE: Zero increment was not found on the output database. This omission 
          will cause discontinuity of amplitudes at driven nodes for multiple 
          step general analysis. That in turn may influence the convergence in 
          the case of the cutbacks in the submodel.

 ***NOTE: Nodal data of type UT are found in the global results.
  *End step

 ***WARNING: THE FOLLOWING NODE(S) ARE NOT PART OF ANY ELEMENT CONNECTIVITY 
             LISTS. BOUNDARY CONDITIONS AND CONCENTRATED LOADS APPLIED TO THESE 
             NODES MAY BE OMITTED. IF ONE OF THESE NODES IS A RIGID BODY 
             REFERENCE NODE, THEN A SURFACE ASSOCIATED WITH RIGID BODY IS NOT 
             PART OF A CONTACT PAIR. THESE MAY BE ACOUSTIC INFINITE ELEMENT 
             REFERENCE NODES.

         804626

 ***NOTE:  THE RESULTS FROM  Global_4.odb WERE USED TO DRIVE THIS SUBMODEL 
          ANALYSIS.



          G L O B A L   M O D E L   N O D E S   U S E D   T O   D R I V E
          T H E   S U B M O D E L


      1001       1002       1003       1004       1005       1006       1007 
      1008       1009       1010       1011       1012       1013       1014 
      1015       1016       1017       1018       1019       1020       1021 
      1022       1023       1024       1025       1026       1027       1028 
      1029       1030       1031       1032       1033       1034       1035 
      1036       1037       1038       1039       1040       1041       1042 
      1043       1044       1045       1046       1047       1048       1049 
      1050       1051       1052       1053       1054       1055       1056 
      1057       1058       1059       1060       1061       1062       1063 
      1064       1065       1066       1067       1068       1069       1070 
      1071       1072       1073       1074       1075       1076       1077 
      1078       1079       1080       1081       1082       1083       1084 
      1085       1086       1087       1088       1089       1090       1091 
      1092       1093       1094       1095       1096       1097       1098 
      1099       1100       1101       1102       1103       1104       1105 
      1106       1107       1108       1109       1110       1111       1112 
      1113       1114       1115       1116       1117       1118       1119 
      1120       1121 



                            P R O B L E M   S I Z E


          NUMBER OF ELEMENTS IS                                 44199
          NUMBER OF NODES IS                                    15092
          NUMBER OF NODES DEFINED BY THE USER                    7622
          NUMBER OF INTERNAL NODES GENERATED BY THE PROGRAM      7470
          TOTAL NUMBER OF VARIABLES IN THE MODEL               124340
          (DEGREES OF FREEDOM PLUS MAX NO. OF ANY LAGRANGE MULTIPLIER
           VARIABLES. INCLUDE *PRINT,SOLVE=YES TO GET THE ACTUAL NUMBER.)



                              END OF USER INPUT PROCESSING



     JOB TIME SUMMARY
       USER TIME (SEC)      =     0.80    
       SYSTEM TIME (SEC)    =     0.10    
       TOTAL CPU TIME (SEC) =     0.90    
       WALLCLOCK TIME (SEC) =            1
1

   Abaqus 2022.HF11                                  Date 22-Oct-2024   Time 15:12:20
   For use by WOELFEL under license from Dassault Systemes or its subsidiary.

                                                                                               STEP    1  INCREMENT    1
      Step-1: Frequency Response                                                          TIME COMPLETED IN THIS STEP   0.00    


                        S T E P       1     S T E A D Y   S T A T E   A N A L Y S I S                


           Step-1: Frequency Response                                                     
          DIRECT CALCULATION WITH COMPLEX MATRICES

          FULL STRUCTURAL-ACOUSTIC COUPLING IS USED IN THIS
          FORCED RESPONSE ANALYSIS
          FREQUENCY RANGE DEFINITIONS (CYCLES/TIME)
                LOW         HIGH        POINTS        BIAS     SCALE FACTOR  TYPE OF SCALING


               500.        1.000E+03       51         1.00         1.00       Linear          

     THIS IS A LINEAR PERTURBATION STEP.
     ALL LOADS ARE DEFINED AS CHANGE IN LOAD TO THE REFERENCE STATE

          UNSYMMETRIC MATRIX STORAGE AND SOLUTION WILL BE USED



                    TOTAL MASS OF MODEL

                    (TOTAL MASS DOES NOT INCLUDE MASS OF ACOUSTIC ELEMENTS)
                      4.7100000E-04


                    LOCATION OF THE CENTER OF MASS OF THE MODEL

                       50.00000           50.00000           50.00000    


                    MOMENTS OF INERTIA ABOUT THE ORIGIN
                           I(XX)               I(YY)               I(ZZ)

                       3.673839           3.673839           3.673839    


                    PRODUCTS OF INERTIA ABOUT THE ORIGIN
                           I(XY)               I(XZ)               I(YZ)

                      -1.177500          -1.177500          -1.178808    


                    MOMENTS OF INERTIA ABOUT THE CENTER OF MASS
                           I(XX)               I(YY)               I(ZZ)

                       1.318839           1.318839           1.318839    


                    PRODUCTS OF INERTIA ABOUT THE CENTER OF MASS
                           I(XY)               I(XZ)               I(YZ)

                      2.2648550E-14      2.4202862E-14     -1.3083333E-03



                    TOTAL MASS OF THE ACOUSTIC MEDIA


                      3.9389830E-05


                    LOCATION OF THE CENTER OF MASS OF THE ACOUSTIC MEDIA

                       49.99728           49.99763           49.99445    





                    TOTAL MASS OF THE SOLID AND ACOUSTIC MEDIA

                      5.1038983E-04


                    LOCATION OF THE CENTER OF MASS OF THE SOLID AND ACOUSTIC MEDIA

                       49.99979           49.99982           49.99957    
  
                   M E M O R Y   E S T I M A T E
  
 PROCESS      FLOATING PT       MINIMUM MEMORY        MEMORY TO
              OPERATIONS           REQUIRED          MINIMIZE I/O
             PER ITERATION           (MB)               (MB)
  
     1          6.76E+10              114                702
  
 NOTE:
      (1) SINCE ABAQUS DOES NOT PRE-ALLOCATE MEMORY AND ONLY ALLOCATES MEMORY AS NEEDED DURING THE ANALYSIS,
          THE MEMORY REQUIREMENT PRINTED HERE CAN ONLY BE VIEWED AS A GENERAL GUIDELINE BASED ON THE BEST
          KNOWLEDGE AVAILABLE AT THE BEGINNING OF A STEP BEFORE THE SOLUTION PROCESS HAS BEGUN.
      (2) THE ESTIMATE IS NORMALLY UPDATED AT THE BEGINNING OF EVERY STEP. IT IS THE MAXIMUM VALUE OF THE
          ESTIMATE FROM THE CURRENT STEP TO THE LAST STEP OF THE ANALYSIS, WITH UNSYMMETRIC SOLUTION TAKEN
          INTO ACCOUNT IF APPLICABLE. 
      (3) SINCE THE ESTIMATE IS BASED ON THE ACTIVE DEGREES OF FREEDOM IN THE FIRST ITERATION OF THE 
          CURRENT STEP, THE MEMORY ESTIMATE MIGHT BE SIGNIFICANTLY DIFFERENT THAN ACTUAL USAGE FOR 
          PROBLEMS WITH SUBSTANTIAL CHANGES IN ACTIVE DEGREES OF FREEDOM BETWEEN STEPS (OR EVEN WITHIN
          THE SAME STEP). EXAMPLES ARE: PROBLEMS WITH SIGNIFICANT CONTACT CHANGES, PROBLEMS WITH MODEL
          CHANGE, PROBLEMS WITH BOTH STATIC STEP AND STEADY STATE DYNAMIC PROCEDURES WHERE ACOUSTIC 
          ELEMENTS WILL ONLY BE ACTIVATED IN THE STEADY STATE DYNAMIC STEPS.
      (4) FOR MULTI-PROCESS EXECUTION, THE ESTIMATED VALUE OF FLOATING POINT OPERATIONS FOR EACH PROCESS
          IS BASED ON AN INITIAL SCHEDULING OF OPERATIONS AND MIGHT NOT REFLECT THE ACTUAL FLOATING 
          POINT OPERATIONS COMPLETED ON EACH PROCESS. OPERATIONS ARE DYNAMICALLY BALANCED DURING EXECUTION, 
          SO THE ACTUAL BALANCE OF OPERATIONS BETWEEN PROCESSES IS EXPECTED TO BE BETTER THAN THE ESTIMATE
          PRINTED HERE.
      (5) THE UPPER LIMIT OF MEMORY THAT CAN BE ALLOCATED BY ABAQUS WILL IN GENERAL DEPEND ON THE VALUE OF
          THE "MEMORY" PARAMETER AND THE AMOUNT OF PHYSICAL MEMORY AVAILABLE ON THE MACHINE. PLEASE SEE
          THE "ABAQUS ANALYSIS USER'S MANUAL" FOR MORE DETAILS. THE ACTUAL USAGE OF MEMORY AND OF DISK
          SPACE FOR SCRATCH DATA WILL DEPEND ON THIS UPPER LIMIT AS WELL AS THE MEMORY REQUIRED TO MINIMIZE
          I/O. IF THE MEMORY UPPER LIMIT IS GREATER THAN THE MEMORY REQUIRED TO MINIMIZE I/O, THEN THE ACTUAL
          MEMORY USAGE WILL BE CLOSE TO THE ESTIMATED "MEMORY TO MINIMIZE I/O" VALUE, AND THE SCRATCH DISK
          USAGE WILL BE CLOSE-TO-ZERO; OTHERWISE, THE ACTUAL MEMORY USED WILL BE CLOSE TO THE PREVIOUSLY
          MENTIONED MEMORY LIMIT, AND THE SCRATCH DISK USAGE WILL BE ROUGHLY PROPORTIONAL TO THE DIFFERENCE
          BETWEEN THE ESTIMATED "MEMORY TO MINIMIZE I/O" AND THE MEMORY UPPER LIMIT. HOWEVER ACCURATE
          ESTIMATE OF THE SCRATCH DISK SPACE IS NOT POSSIBLE.
      (6) USING "*RESTART, WRITE" CAN GENERATE A LARGE AMOUNT OF DATA WRITTEN IN THE WORK DIRECTORY.


          INCREMENT NUMBER    1  AT FREQUENCY (CYCLES/TIME) =   500.00000    
  
  
  
  
                                       N O D E   O U T P U T
  
  
  
  
   THE FOLLOWING TABLE IS PRINTED FOR NODES BELONGING TO NODE SET POR
  
       NODE FOOT-  POR          
            NOTE
  
    900001      4.3719055E-06 
    900001 SSD -1.0304660E-05 
    900002      4.5673540E-06 
    900002 SSD -1.0415268E-05 
    900003      4.6545705E-06 
    900003 SSD -1.0462906E-05 
    900004      4.7790703E-06 
    900004 SSD -1.0529975E-05 
    900005      4.7821499E-06 
    900005 SSD -1.0521394E-05 
    900006      1.2829655E-06 
    900006 SSD -8.5006148E-06 
    900007     -2.6559112E-07 
    900007 SSD -7.3682816E-06 
    900008     -1.6765793E-06 
    900008 SSD -6.0538060E-06 
    900009     -5.4489697E-07 
    900009 SSD -7.1164735E-06 
    900010     -1.6661845E-06 
    900010 SSD -6.0534488E-06 
    900011     -1.6304543E-06 
    900011 SSD -6.0935624E-06 
    900012     -1.1858702E-06 
    900012 SSD -6.5565064E-06 
    900013      1.6632886E-07 
    900013 SSD -7.7016541E-06 
    900014      9.5906913E-07 
    900014 SSD -8.2636173E-06 
    900015     -1.6195270E-06 
    900015 SSD -6.0914084E-06 
    900016     -1.5981604E-06 
    900016 SSD -6.1148835E-06 
    900017     -1.0807365E-06 
    900017 SSD -6.6363048E-06 
    900018     -1.2045662E-06 
    900018 SSD -6.5176286E-06 
    900019     -1.1431940E-06 
    900019 SSD -6.5775202E-06 
    900020     -7.4044649E-07 
    900020 SSD -6.9348793E-06 
    900021     -1.6178627E-07 
    900021 SSD -7.4342005E-06 
    900022      5.0997014E-07 
    900022 SSD -7.9600381E-06 
    900023     -5.3273258E-07 
    900023 SSD -7.1329766E-06 
    900024      2.5935865E-08 
    900024 SSD -7.5879506E-06 
    900025     -6.4227095E-07 
    900025 SSD -7.0397972E-06 
    900026     -4.7947415E-07 
    900026 SSD -7.1703991E-06 
    900027      2.1359455E-07 
    900027 SSD -7.7184601E-06 
    900028      9.1585178E-07 
    900028 SSD -8.2451216E-06 
    900029      1.6251964E-06 
    900029 SSD -8.7353952E-06 
    900030      2.3315157E-06 
    900030 SSD -9.1705891E-06 
    900031      2.9732802E-06 
    900031 SSD -9.5417065E-06 
    900032      3.4817246E-06 
    900032 SSD -9.8529175E-06 
    900033      3.9362496E-06 
    900033 SSD -1.0084892E-05 
    900034      3.3943904E-06 
    900034 SSD -9.7829378E-06 
    900035      2.9257574E-06 
    900035 SSD -9.5174016E-06 
    900036      2.3129790E-06 
    900036 SSD -9.1682983E-06 
    900037      1.6932579E-06 
    900037 SSD -8.7550248E-06 
    900038      9.7549925E-07 
    900038 SSD -8.2911880E-06 
    900039      2.6081009E-07 
    900039 SSD -7.7687776E-06 
    900040     -4.3320509E-07 
    900040 SSD -7.2230975E-06 
    900041     -1.0985846E-06 
    900041 SSD -6.6121415E-06 
    900042     -1.0400159E-06 
    900042 SSD -6.6633553E-06 
    900043      3.9950524E-06 
    900043 SSD -1.0111268E-05 
    900044      3.5232916E-06 
    900044 SSD -9.8442802E-06 
    900045      2.9095228E-06 
    900045 SSD -9.5168358E-06 
    900046      2.2327791E-06 
    900046 SSD -9.1095840E-06 
    900047      1.5153636E-06 
    900047 SSD -8.6529507E-06 
    900048      7.9711679E-07 
    900048 SSD -8.1557141E-06 
    900049      8.2595859E-08 
    900049 SSD -7.6275929E-06 
    900050     -5.7569848E-07 
    900050 SSD -7.0880338E-06 
    900051     -1.1928384E-06 
    900051 SSD -6.5404584E-06 
    900052      2.7331811E-06 
    900052 SSD -9.4097323E-06 
    900053      2.2475993E-06 
    900053 SSD -9.1079830E-06 
    900054      1.6388282E-06 
    900054 SSD -8.7216590E-06 
    900055      9.6315283E-07 
    900055 SSD -8.2831290E-06 
    900056      2.6854356E-07 
    900056 SSD -7.7786028E-06 
    900057     -3.8635206E-07 
    900057 SSD -7.2471474E-06 
    900058     -1.0269039E-06 
    900058 SSD -6.6917534E-06 
    900059      3.1398662E-06 
    900059 SSD -9.6539663E-06 
    900060      3.7687307E-06 
    900060 SSD -9.9908663E-06 
    900061      4.2511123E-06 
    900061 SSD -1.0245930E-05 
    900062      4.3438098E-06 
    900062 SSD -1.0314497E-05 
    900063      3.9250948E-06 
    900063 SSD -1.0082572E-05 
    900064      3.3688489E-06 
    900064 SSD -9.7818922E-06 
    900065      2.7264538E-06 
    900065 SSD -9.4084050E-06 
    900066      2.0278848E-06 
    900066 SSD -8.9895834E-06 
    900067      1.3113241E-06 
    900067 SSD -8.5132854E-06 
    900068      5.8690342E-07 
    900068 SSD -8.0080229E-06 
    900069     -8.7051882E-08 
    900069 SSD -7.4840852E-06 
    900070     -7.4042893E-07 
    900070 SSD -6.9598771E-06 
    900071     -1.3025296E-06 
    900071 SSD -6.4361340E-06 
    900072     -1.6881267E-06 
    900072 SSD -6.0263277E-06 
    900073     -1.6481133E-06 
    900073 SSD -6.0710609E-06 
    900074     -1.5959775E-06 
    900074 SSD -6.1099368E-06 
    900075     -1.5878162E-06 
    900075 SSD -6.1266069E-06 
    900076      2.4311046E-06 
    900076 SSD -9.2385979E-06 
    900077      2.0255001E-06 
    900077 SSD -8.9817474E-06 
    900078      1.5100363E-06 
    900078 SSD -8.6398362E-06 
    900079      8.9352814E-07 
    900079 SSD -8.2277513E-06 
    900080      2.3510315E-07 
    900080 SSD -7.7547595E-06 
    900081     -4.1866996E-07 
    900081 SSD -7.2351466E-06 
    900082     -1.0183775E-06 
    900082 SSD -6.6908585E-06 
    900083     -1.5923907E-06 
    900083 SSD -6.1343428E-06 
    900084      2.7688625E-06 
    900084 SSD -9.4359517E-06 
    900085      3.4780145E-06 
    900085 SSD -9.8451541E-06 
    900086      4.0337606E-06 
    900086 SSD -1.0155476E-05 
    900087      4.5116806E-06 
    900087 SSD -1.0383044E-05 
    900088      4.5740029E-06 
    900088 SSD -1.0421534E-05 
    900089      4.2246258E-06 
    900089 SSD -1.0232442E-05 
    900090      3.7430473E-06 
    900090 SSD -9.9704283E-06 
    900091      3.1119388E-06 
    900091 SSD -9.6306752E-06 
    900092      2.4300294E-06 
    900092 SSD -9.2404538E-06 
    900093      1.6958218E-06 
    900093 SSD -8.7843994E-06 
    900094      9.7445892E-07 
    900094 SSD -8.3024624E-06 
    900095      2.8197026E-07 
    900095 SSD -7.7878314E-06 
    900096     -3.8317281E-07 
    900096 SSD -7.2530146E-06 
    900097     -1.0096531E-06 
    900097 SSD -6.7021240E-06 
    900098     -1.6472758E-06 
    900098 SSD -6.0684503E-06 
    900099     -1.5925130E-06 
    900099 SSD -6.1296958E-06 
    900100     -1.2568481E-06 
    900100 SSD -6.4860718E-06 
    900101     -1.7639457E-06 
    900101 SSD -5.9714383E-06 
    900102     -1.4915979E-06 
    900102 SSD -6.2278932E-06 
    900103     -1.7193654E-06 
    900103 SSD -5.9908144E-06 
    900104     -1.5871240E-06 
    900104 SSD -6.1431431E-06 
    900105     -1.0093623E-06 
    900105 SSD -6.7112351E-06 
    900106      5.1316255E-07 
    900106 SSD -7.9641464E-06 
    900107     -5.7137342E-07 
    900107 SSD -7.0989055E-06 
    900108     -1.7042615E-06 
    900108 SSD -6.0416586E-06 
    900109     -1.2224736E-06 
    900109 SSD -6.5038971E-06 
    900110     -1.7571040E-06 
    900110 SSD -5.9572384E-06 
    900111     -1.5394148E-06 
    900111 SSD -6.1872480E-06 
    900112     -1.6610577E-06 
    900112 SSD -6.0802468E-06 
    900113     -1.6281361E-06 
    900113 SSD -6.1117948E-06 
    900114      1.0786126E-07 
    900114 SSD -7.6643127E-06 
    900115      8.4472947E-07 
    900115 SSD -8.1936486E-06 
    900116      4.4039728E-07 
    900116 SSD -7.9308401E-06 
    900117     -9.0737663E-07 
    900117 SSD -6.8130509E-06 
    900118     -2.2848711E-07 
    900118 SSD -7.3838804E-06 
    900119     -1.2119229E-06 
    900119 SSD -6.5341074E-06 
    900120     -1.1548203E-06 
    900120 SSD -6.5871088E-06 
    900121     -1.0929194E-06 
    900121 SSD -6.6427181E-06 
    900122      2.2298461E-08 
    900122 SSD -7.5837947E-06 
    900123     -5.2637185E-07 
    900123 SSD -7.1519895E-06 
    900124     -6.5182165E-07 
    900124 SSD -7.0502186E-06 
    900125      1.6973263E-06 
    900125 SSD -8.7797899E-06 
    900126      1.2801580E-06 
    900126 SSD -8.4932924E-06 
    900127      7.5568580E-07 
    900127 SSD -8.1315779E-06 
    900128      1.6310817E-07 
    900128 SSD -7.6940724E-06 
    900129     -4.6778618E-07 
    900129 SSD -7.1954494E-06 
    900130     -1.0242909E-06 
    900130 SSD -6.6726570E-06 
    900131      3.4300963E-06 
    900131 SSD -9.8162350E-06 
    900132      2.8653700E-06 
    900132 SSD -9.5034524E-06 
    900133      2.2232550E-06 
    900133 SSD -9.1297161E-06 
    900134      1.5415954E-06 
    900134 SSD -8.6915350E-06 
    900135      8.4083446E-07 
    900135 SSD -8.2001439E-06 
    900136      1.2703878E-07 
    900136 SSD -7.6795087E-06 
    900137     -5.2330147E-07 
    900137 SSD -7.1408443E-06 
    900138     -1.1561240E-06 
    900138 SSD -6.5882055E-06 
    900139     -1.0903777E-06 
    900139 SSD -6.6465369E-06 
    900140     -4.6942570E-07 
    900140 SSD -7.2091545E-06 
    900141      2.0069821E-07 
    900141 SSD -7.7442371E-06 
    900142      8.8930665E-07 
    900142 SSD -8.2554216E-06 
    900143      1.6164311E-06 
    900143 SSD -8.7256469E-06 
    900144      2.2601764E-06 
    900144 SSD -9.1367989E-06 
    900145      2.8522107E-06 
    900145 SSD -9.4802361E-06 
    900146      3.9096482E-06 
    900146 SSD -1.0069895E-05 
    900147      3.3554152E-06 
    900147 SSD -9.7629798E-06 
    900148     -6.6900904E-07 
    900148 SSD -7.0184595E-06 
    900149     -1.4930655E-08 
    900149 SSD -7.5654828E-06 
    900150      6.8935654E-07 
    900150 SSD -8.0928357E-06 
    900151      1.4222576E-06 
    900151 SSD -8.6028816E-06 
    900152      2.1123233E-06 
    900152 SSD -9.0534372E-06 
    900153      2.7980256E-06 
    900153 SSD -9.4611353E-06 
    900154      3.4226628E-06 
    900154 SSD -9.7997034E-06 
    900155      3.9143879E-06 
    900155 SSD -1.0077328E-05 
    900156      4.2934674E-06 
    900156 SSD -1.0281593E-05 
    900157     -1.0589463E-06 
    900157 SSD -6.6732930E-06 
    900158     -4.4801014E-07 
    900158 SSD -7.2308659E-06 
    900159      2.3978375E-07 
    900159 SSD -7.7637313E-06 
    900160      9.1445283E-07 
    900160 SSD -8.2629559E-06 
    900161      1.5775230E-06 
    900161 SSD -8.7016081E-06 
    900162      2.1643713E-06 
    900162 SSD -9.0730987E-06 
    900163      2.6668857E-06 
    900163 SSD -9.3805908E-06 
    900164     -1.6136825E-06 
    900164 SSD -6.1185562E-06 
    900165     -1.6354951E-06 
    900165 SSD -6.1018150E-06 
    900166     -1.6669725E-06 
    900166 SSD -6.0586524E-06 
    900167     -8.9096235E-07 
    900167 SSD -6.8168944E-06 
    900168     -2.6600856E-07 
    900168 SSD -7.3757939E-06 
    900169      4.5158853E-07 
    900169 SSD -7.9207842E-06 
    900170      1.1860829E-06 
    900170 SSD -8.4465946E-06 
    900171      1.8996140E-06 
    900171 SSD -8.9195783E-06 
    900172      2.6323407E-06 
    900172 SSD -9.3521635E-06 
    900173      3.2948410E-06 
    900173 SSD -9.7192454E-06 
    900174      3.8148677E-06 
    900174 SSD -1.0022516E-05 
    900175      4.2695622E-06 
    900175 SSD -1.0256389E-05 
    900176      4.5626053E-06 
    900176 SSD -1.0425443E-05 
    900177      4.6620448E-06 
    900177 SSD -1.0458270E-05 
    900178      4.2528984E-06 
    900178 SSD -1.0261219E-05 
    900179      3.7616502E-06 
    900179 SSD -9.9892806E-06 
    900180      3.1343763E-06 
    900180 SSD -9.6368726E-06 
    900181     -1.6179283E-06 
    900181 SSD -6.1244956E-06 
    900182     -1.0531519E-06 
    900182 SSD -6.6852656E-06 
    900183     -4.3246718E-07 
    900183 SSD -7.2407855E-06 
    900184      2.1289307E-07 
    900184 SSD -7.7485927E-06 
    900185      8.5957860E-07 
    900185 SSD -8.2158354E-06 
    900186      1.4410079E-06 
    900186 SSD -8.6119091E-06 
    900187      1.9552113E-06 
    900187 SSD -8.9338376E-06 
    900188      2.3944026E-06 
    900188 SSD -9.2015745E-06 
    900189     -1.1723251E-06 
    900189 SSD -6.5646966E-06 
    900190     -5.3416458E-07 
    900190 SSD -7.1340186E-06 
    900191      1.5728865E-07 
    900191 SSD -7.6882613E-06 
    900192      8.6251685E-07 
    900192 SSD -8.2184445E-06 
    900193      1.5877134E-06 
    900193 SSD -8.7153047E-06 
    900194      2.3334762E-06 
    900194 SSD -9.1698068E-06 
    900195      3.0191413E-06 
    900195 SSD -9.5747646E-06 
    900196      3.6061734E-06 
    900196 SSD -9.9060276E-06 
    900197      4.1226796E-06 
    900197 SSD -1.0180664E-05 
    900198      4.4976136E-06 
    900198 SSD -1.0378650E-05 
    900199      4.8079386E-06 
    900199 SSD -1.0530406E-05 
    900200      4.7938790E-06 
    900200 SSD -1.0546463E-05 
    900201      2.0301244E-06 
    900201 SSD -8.9770842E-06 
    900202      1.5574174E-06 
    900202 SSD -8.6794196E-06 
    900203      1.1780737E-06 
    900203 SSD -8.4407687E-06 
    900204      7.1061508E-07 
    900204 SSD -8.1119487E-06 
    900205      1.4255719E-07 
    900205 SSD -7.6905869E-06 
    900206     -4.5088422E-07 
    900206 SSD -7.2051968E-06 
    900207     -1.0636294E-06 
    900207 SSD -6.6779653E-06 
    900208     -1.6107624E-06 
    900208 SSD -6.1288444E-06 
    900209     -4.2238991E-06 
    900209 SSD -1.7884711E-06 
    900210     -4.2512184E-06 
    900210 SSD -1.7130685E-06 
    900211     -4.2522129E-06 
    900211 SSD -1.6910758E-06 
    900212     -4.2603152E-06 
    900212 SSD -1.6600645E-06 
    900213     -2.1038688E-06 
    900213 SSD -5.5773017E-06 
    900214     -2.0860937E-06 
    900214 SSD -5.5854024E-06 
    900215     -2.0911070E-06 
    900215 SSD -5.5827509E-06 
    900216     -2.0915974E-06 
    900216 SSD -5.5815540E-06 
    900217     -2.1107402E-06 
    900217 SSD -5.5788270E-06 
    900218     -3.7768497E-06 
    900218 SSD -2.9739105E-06 
    900219     -3.3044619E-06 
    900219 SSD -3.8793198E-06 
    900220     -2.4793746E-06 
    900220 SSD -5.1105642E-06 
    900221     -3.1711125E-06 
    900221 SSD -4.0963287E-06 
    900222     -2.4692411E-06 
    900222 SSD -5.1099364E-06 
    900223     -2.5098184E-06 
    900223 SSD -5.0650896E-06 
    900224     -2.8282892E-06 
    900224 SSD -4.6218107E-06 
    900225     -3.4588085E-06 
    900225 SSD -3.6093647E-06 
    900226     -3.6711072E-06 
    900226 SSD -3.1781954E-06 
    900227     -2.5062585E-06 
    900227 SSD -5.0790032E-06 
    900228     -2.5309110E-06 
    900228 SSD -5.0564996E-06 
    900229     -2.8752808E-06 
    900229 SSD -4.5700122E-06 
    900230     -2.8127432E-06 
    900230 SSD -4.6671841E-06 
    900231     -2.8452535E-06 
    900231 SSD -4.6199147E-06 
    900232     -3.0729322E-06 
    900232 SSD -4.2725359E-06 
    900233     -3.3306945E-06 
    900233 SSD -3.8386421E-06 
    900234     -3.5534271E-06 
    900234 SSD -3.4174006E-06 
    900235     -3.1586946E-06 
    900235 SSD -4.1212197E-06 
    900236     -3.3926029E-06 
    900236 SSD -3.7310808E-06 
    900237     -3.1282884E-06 
    900237 SSD -4.1870250E-06 
    900238     -3.1786384E-06 
    900238 SSD -4.1094796E-06 
    900239     -3.4519285E-06 
    900239 SSD -3.6528374E-06 
    900240     -3.6454956E-06 
    900240 SSD -3.2430471E-06 
    900241     -3.8188012E-06 
    900241 SSD -2.8760365E-06 
    900242     -3.9606516E-06 
    900242 SSD -2.5595446E-06 
    900243     -4.0512092E-06 
    900243 SSD -2.2990720E-06 
    900244     -4.1330573E-06 
    900244 SSD -2.0885563E-06 
    900245     -4.1831906E-06 
    900245 SSD -1.9310638E-06 
    900246     -4.1119854E-06 
    900246 SSD -2.1235438E-06 
    900247     -4.0472545E-06 
    900247 SSD -2.3116194E-06 
    900248     -3.9569609E-06 
    900248 SSD -2.5575124E-06 
    900249     -3.8310939E-06 
    900249 SSD -2.8549011E-06 
    900250     -3.6598501E-06 
    900250 SSD -3.2118956E-06 
    900251     -3.4683175E-06 
    900251 SSD -3.6136963E-06 
    900252     -3.2082385E-06 
    900252 SSD -4.0637622E-06 
    900253     -2.8524908E-06 
    900253 SSD -4.5955721E-06 
    900254     -2.8803727E-06 
    900254 SSD -4.5553181E-06 
    900255     -4.1883475E-06 
    900255 SSD -1.9143694E-06 
    900256     -4.1233472E-06 
    900256 SSD -2.0947453E-06 
    900257     -4.0515305E-06 
    900257 SSD -2.3187897E-06 
    900258     -3.9348786E-06 
    900258 SSD -2.6029708E-06 
    900259     -3.7909910E-06 
    900259 SSD -2.9384315E-06 
    900260     -3.6086903E-06 
    900260 SSD -3.3129433E-06 
    900261     -3.4010343E-06 
    900261 SSD -3.7274109E-06 
    900262     -3.1235131E-06 
    900262 SSD -4.1805036E-06 
    900263     -2.8176802E-06 
    900263 SSD -4.6583688E-06 
    900264     -4.0267561E-06 
    900264 SSD -2.3701687E-06 
    900265     -3.9451254E-06 
    900265 SSD -2.5932785E-06 
    900266     -3.8243178E-06 
    900266 SSD -2.8699414E-06 
    900267     -3.6671841E-06 
    900267 SSD -3.2111716E-06 
    900268     -3.4654282E-06 
    900268 SSD -3.6036114E-06 
    900269     -3.2083595E-06 
    900269 SSD -4.0469852E-06 
    900270     -2.9089233E-06 
    900270 SSD -4.5315247E-06 
    900271     -4.0928556E-06 
    900271 SSD -2.1969231E-06 
    900272     -4.1599552E-06 
    900272 SSD -1.9815078E-06 
    900273     -4.2138905E-06 
    900273 SSD -1.8208808E-06 
    900274     -4.2266981E-06 
    900274 SSD -1.7901813E-06 
    900275     -4.1802410E-06 
    900275 SSD -1.9397428E-06 
    900276     -4.1106428E-06 
    900276 SSD -2.1389605E-06 
    900277     -4.0170033E-06 
    900277 SSD -2.3925410E-06 
    900278     -3.9006376E-06 
    900278 SSD -2.6921006E-06 
    900279     -3.7395781E-06 
    900279 SSD -3.0391511E-06 
    900280     -3.5515625E-06 
    900280 SSD -3.4265663E-06 
    900281     -3.3233341E-06 
    900281 SSD -3.8480002E-06 
    900282     -3.0525923E-06 
    900282 SSD -4.2889343E-06 
    900283     -2.7521849E-06 
    900283 SSD -4.7477633E-06 
    900284     -2.4637028E-06 
    900284 SSD -5.1373345E-06 
    900285     -2.4804885E-06 
    900285 SSD -5.1002207E-06 
    900286     -2.5220677E-06 
    900286 SSD -5.0641635E-06 
    900287     -2.5441806E-06 
    900287 SSD -5.0442670E-06 
    900288     -3.9910124E-06 
    900288 SSD -2.4708734E-06 
    900289     -3.9056559E-06 
    900289 SSD -2.6702419E-06 
    900290     -3.8022614E-06 
    900290 SSD -2.9240887E-06 
    900291     -3.6451230E-06 
    900291 SSD -3.2442796E-06 
    900292     -3.4566252E-06 
    900292 SSD -3.6183654E-06 
    900293     -3.2138094E-06 
    900293 SSD -4.0499920E-06 
    900294     -2.8983125E-06 
    900294 SSD -4.5296252E-06 
    900295     -2.5388117E-06 
    900295 SSD -5.0427607E-06 
    900296     -4.0442621E-06 
    900296 SSD -2.3147796E-06 
    900297     -4.1345656E-06 
    900297 SSD -2.0706359E-06 
    900298     -4.1948047E-06 
    900298 SSD -1.8800113E-06 
    900299     -4.2372976E-06 
    900299 SSD -1.7417779E-06 
    900300     -2.1016865E-06 
    900300 SSD -5.5740360E-06 
    900301     -2.1084804E-06 
    900301 SSD -5.5766042E-06 
    900302     -2.1009838E-06 
    900302 SSD -5.5771885E-06 
    900303     -2.1004009E-06 
    900303 SSD -5.5779715E-06 
    900304     -2.1073045E-06 
    900304 SSD -5.5797128E-06 
    900305     -2.1146398E-06 
    900305 SSD -5.5748162E-06 
    900306     -2.5471770E-06 
    900306 SSD -5.0455026E-06 
    900307     -2.7653566E-06 
    900307 SSD -4.7089340E-06 
    900308     -2.4124093E-06 
    900308 SSD -5.1837497E-06 
    900309     -2.6007058E-06 
    900309 SSD -4.9385645E-06 
    900310     -2.0988922E-06 
    900310 SSD -5.5803473E-06 
    900311     -2.0827943E-06 
    900311 SSD -5.5905043E-06 
    900312     -2.5597374E-06 
    900312 SSD -4.9995559E-06 
    900313     -2.9423921E-06 
    900313 SSD -4.4626726E-06 
    900314     -3.5745866E-06 
    900314 SSD -3.3887855E-06 
    900315     -2.0823598E-06 
    900315 SSD -5.5821419E-06 
    900316     -2.0861260E-06 
    900316 SSD -5.5855859E-06 
    900317     -2.0749676E-06 
    900317 SSD -5.5862068E-06 
    900318     -2.0689460E-06 
    900318 SSD -5.5916054E-06 
    900319     -2.0880878E-06 
    900319 SSD -5.5765381E-06 
    900320     -3.1373977E-06 
    900320 SSD -4.1425172E-06 
    900321     -2.4602348E-06 
    900321 SSD -5.1386661E-06 
    900322     -2.8044695E-06 
    900322 SSD -4.6602229E-06 
    900323     -2.3981099E-06 
    900323 SSD -5.2071914E-06 
    900324     -2.5692929E-06 
    900324 SSD -4.9828947E-06 
    900325     -2.4727465E-06 
    900325 SSD -5.1033909E-06 
    900326     -2.4825667E-06 
    900326 SSD -5.0780909E-06 
    900327     -3.4348933E-06 
    900327 SSD -3.6389965E-06 
    900328     -3.6652401E-06 
    900328 SSD -3.1977387E-06 
    900329     -3.5354006E-06 
    900329 SSD -3.4559081E-06 
    900330     -2.9824426E-06 
    900330 SSD -4.3971820E-06 
    900331     -3.2839941E-06 
    900331 SSD -3.9091348E-06 
    900332     -2.7891461E-06 
    900332 SSD -4.6667554E-06 
    900333     -2.8155140E-06 
    900333 SSD -4.6344503E-06 
    900334     -2.8609247E-06 
    900334 SSD -4.5872744E-06 
    900335     -3.4350440E-06 
    900335 SSD -3.6603580E-06 
    900336     -3.2025122E-06 
    900336 SSD -4.0773272E-06 
    900337     -2.8966040E-06 
    900337 SSD -4.5407226E-06 
    900338     -4.1161749E-06 
    900338 SSD -2.1146344E-06 
    900339     -4.0350907E-06 
    900339 SSD -2.3353141E-06 
    900340     -3.9336941E-06 
    900340 SSD -2.6010180E-06 
    900341     -3.7985813E-06 
    900341 SSD -2.9211341E-06 
    900342     -3.6224151E-06 
    900342 SSD -3.2855973E-06 
    900343     -3.4194388E-06 
    900343 SSD -3.6900544E-06 
    900344     -3.1455796E-06 
    900344 SSD -4.1356725E-06 
    900345     -2.8347349E-06 
    900345 SSD -4.6129417E-06 
    900346     -2.8695404E-06 
    900346 SSD -4.5668769E-06 
    900347     -3.1619063E-06 
    900347 SSD -4.0937300E-06 
    900348     -3.4394642E-06 
    900348 SSD -3.6452025E-06 
    900349     -3.6479694E-06 
    900349 SSD -3.2431275E-06 
    900350     -3.8128443E-06 
    900350 SSD -2.8946091E-06 
    900351     -3.9446642E-06 
    900351 SSD -2.5893842E-06 
    900352     -4.0426307E-06 
    900352 SSD -2.3384241E-06 
    900353     -4.1734639E-06 
    900353 SSD -1.9457645E-06 
    900354     -4.1088721E-06 
    900354 SSD -2.1377621E-06 
    900355     -3.0929262E-06 
    900355 SSD -4.2314726E-06 
    900356     -3.3524921E-06 
    900356 SSD -3.7872133E-06 
    900357     -3.5748742E-06 
    900357 SSD -3.3663184E-06 
    900358     -3.7654158E-06 
    900358 SSD -2.9875353E-06 
    900359     -3.9092095E-06 
    900359 SSD -2.6535528E-06 
    900360     -4.0248664E-06 
    900360 SSD -2.3681635E-06 
    900361     -4.1082553E-06 
    900361 SSD -2.1326981E-06 
    900362     -4.1718765E-06 
    900362 SSD -1.9449005E-06 
    900363     -4.2211586E-06 
    900363 SSD -1.8027031E-06 
    900364     -2.8846991E-06 
    900364 SSD -4.5432601E-06 
    900365     -3.1917512E-06 
    900365 SSD -4.0694351E-06 
    900366     -3.4464311E-06 
    900366 SSD -3.6288709E-06 
    900367     -3.6388934E-06 
    900367 SSD -3.2439941E-06 
    900368     -3.8092230E-06 
    900368 SSD -2.9030460E-06 
    900369     -3.9251630E-06 
    900369 SSD -2.6207929E-06 
    900370     -4.0143491E-06 
    900370 SSD -2.3891160E-06 
    900371     -2.5183667E-06 
    900371 SSD -5.0526921E-06 
    900372     -2.5008027E-06 
    900372 SSD -5.0701895E-06 
    900373     -2.4877339E-06 
    900373 SSD -5.1000318E-06 
    900374     -2.9869649E-06 
    900374 SSD -4.4073344E-06 
    900375     -3.2759589E-06 
    900375 SSD -3.9303756E-06 
    900376     -3.5163392E-06 
    900376 SSD -3.4974549E-06 
    900377     -3.7128747E-06 
    900377 SSD -3.1011688E-06 
    900378     -3.8688236E-06 
    900378 SSD -2.7483552E-06 
    900379     -3.9989075E-06 
    900379 SSD -2.4430059E-06 
    900380     -4.0944973E-06 
    900380 SSD -2.1899103E-06 
    900381     -4.1607971E-06 
    900381 SSD -1.9836054E-06 
    900382     -4.2141767E-06 
    900382 SSD -1.8259114E-06 
    900383     -4.2494807E-06 
    900383 SSD -1.7164110E-06 
    900384     -4.2523916E-06 
    900384 SSD -1.6998103E-06 
    900385     -4.2153195E-06 
    900385 SSD -1.8168903E-06 
    900386     -4.1666560E-06 
    900386 SSD -1.9844343E-06 
    900387     -4.0856394E-06 
    900387 SSD -2.2049381E-06 
    900388     -2.5128510E-06 
    900388 SSD -5.0577512E-06 
    900389     -2.8751308E-06 
    900389 SSD -4.5479900E-06 
    900390     -3.1925416E-06 
    900390 SSD -4.0704049E-06 
    900391     -3.4341379E-06 
    900391 SSD -3.6444021E-06 
    900392     -3.6356042E-06 
    900392 SSD -3.2701696E-06 
    900393     -3.7809572E-06 
    900393 SSD -2.9557140E-06 
    900394     -3.8897582E-06 
    900394 SSD -2.6943263E-06 
    900395     -3.9825319E-06 
    900395 SSD -2.4803695E-06 
    900396     -2.0959250E-06 
    900396 SSD -5.5797890E-06 
    900397     -2.0990293E-06 
    900397 SSD -5.5775235E-06 
    900398     -2.0967431E-06 
    900398 SSD -5.5762965E-06 
    900399     -2.0837146E-06 
    900399 SSD -5.5787679E-06 
    900400     -3.9234109E-06 
    900400 SSD -2.6171708E-06 
    900401     -3.8430382E-06 
    900401 SSD -2.8122724E-06 
    900402     -3.7350713E-06 
    900402 SSD -3.0483589E-06 
    900403     -3.5982336E-06 
    900403 SSD -3.3401875E-06 
    900404     -3.4064459E-06 
    900404 SSD -3.6861810E-06 
    900405     -3.1818027E-06 
    900405 SSD -4.0915400E-06 
    900406     -2.8853512E-06 
    900406 SSD -4.5585907E-06 
    900407     -2.5047597E-06 
    900407 SSD -5.0611015E-06 
    900408     -2.0830194E-06 
    900408 SSD -5.5848471E-06 
    900409     -1.5829432E-06 
    900409 SSD -6.1442201E-06 
    900410     -1.0160865E-06 
    900410 SSD -6.6916245E-06 
    900411     -3.9755759E-07 
    900411 SSD -7.2257361E-06 
    900412      1.8464754E-07 
    900412 SSD -7.7146482E-06 
    900413      8.0767340E-07 
    900413 SSD -8.1602255E-06 
    900414      1.3189846E-06 
    900414 SSD -8.5258647E-06 
    900415      1.8158401E-06 
    900415 SSD -8.8435006E-06 
    900416      2.2135583E-06 
    900416 SSD -9.1081635E-06 
    900417     -3.3686139E-06 
    900417 SSD -3.7603023E-06 
    900418     -3.1540801E-06 
    900418 SSD -4.1423532E-06 
    900419     -3.0974807E-06 
    900419 SSD -4.2097281E-06 
    900420     -3.8539594E-06 
    900420 SSD -2.7954029E-06 
    900421      2.5430683E-06 
    900421 SSD -9.3043548E-06 
    900422      2.0844127E-06 
    900422 SSD -9.0095128E-06 
    900423      1.5298158E-06 
    900423 SSD -8.6524509E-06 
    900424     -3.7528744E-06 
    900424 SSD -3.0210677E-06 
    900425     -3.6194609E-06 
    900425 SSD -3.3055209E-06 
    900426      9.0681610E-07 
    900426 SSD -8.2457927E-06 
    900427      2.5421251E-07 
    900427 SSD -7.7699987E-06 
    900428     -3.8581253E-07 
    900428 SSD -7.2512683E-06 
    900429     -1.0116672E-06 
    900429 SSD -6.7040818E-06 
    900430     -1.5690003E-06 
    900430 SSD -6.1471962E-06 
    900431      3.2352076E-06 
    900431 SSD -9.7008243E-06 
    900432      3.8186916E-06 
    900432 SSD -1.0020973E-05 
    900433      4.3110032E-06 
    900433 SSD -1.0281802E-05 
    900434      4.6467125E-06 
    900434 SSD -1.0461377E-05 
    900435      4.5502313E-06 
    900435 SSD -1.0420611E-05 
    900436      4.2699570E-06 
    900436 SSD -1.0253154E-05 
    900437      3.8074785E-06 
    900437 SSD -1.0029477E-05 
    900438      3.2833947E-06 
    900438 SSD -9.7211839E-06 
    900439      2.6441880E-06 
    900439 SSD -9.3547968E-06 
    900440      1.9389085E-06 
    900440 SSD -8.9235180E-06 
    900441      1.2034675E-06 
    900441 SSD -8.4384148E-06 
    900442      4.7060618E-07 
    900442 SSD -7.9295460E-06 
    900443     -2.2686670E-07 
    900443 SSD -7.3833905E-06 
    900444     -8.6744050E-07 
    900444 SSD -6.8220242E-06 
    900445     -1.6426398E-06 
    900445 SSD -6.0684106E-06 
    900446     -1.5907668E-06 
    900446 SSD -6.1152531E-06 
    900447     -1.5853390E-06 
    900447 SSD -6.1324961E-06 
    900448      2.7729053E-06 
    900448 SSD -9.4345160E-06 
    900449      2.2398982E-06 
    900449 SSD -9.1074050E-06 
    900450      1.6305051E-06 
    900450 SSD -8.7272709E-06 
    900451      9.5942115E-07 
    900451 SSD -8.2796337E-06 
    900452      2.8158866E-07 
    900452 SSD -7.7773278E-06 
    900453     -3.9101001E-07 
    900453 SSD -7.2482475E-06 
    900454     -9.9932010E-07 
    900454 SSD -6.6987600E-06 
    900455      4.3305549E-06 
    900455 SSD -1.0288821E-05 
    900456      3.9391088E-06 
    900456 SSD -1.0083401E-05 
    900457      3.4285136E-06 
    900457 SSD -9.8052431E-06 
    900458      2.8401166E-06 
    900458 SSD -9.4626949E-06 
    900459      2.1486208E-06 
    900459 SSD -9.0554470E-06 
    900460      1.4428289E-06 
    900460 SSD -8.6016506E-06 
    900461      6.9338195E-07 
    900461 SSD -8.0984998E-06 
    900462      1.3848479E-08 
    900462 SSD -7.5712186E-06 
    900463     -6.5477896E-07 
    900463 SSD -7.0258733E-06 
    900464      3.4140826E-06 
    900464 SSD -9.7942231E-06 
    900465      3.9482303E-06 
    900465 SSD -1.0079265E-05 
    900466      2.9113790E-06 
    900466 SSD -9.5060773E-06 
    900467      2.3050607E-06 
    900467 SSD -9.1496896E-06 
    900468      1.6368647E-06 
    900468 SSD -8.7345868E-06 
    900469      9.4345103E-07 
    900469 SSD -8.2629279E-06 
    900470      2.2886336E-07 
    900470 SSD -7.7536296E-06 
    900471     -4.3889269E-07 
    900471 SSD -7.2129658E-06 
    900472     -1.0464407E-06 
    900472 SSD -6.6646384E-06 
    900473     -1.1193480E-06 
    900473 SSD -6.6003002E-06 
    900474     -5.0581154E-07 
    900474 SSD -7.1528995E-06 
    900475      1.4976545E-07 
    900475 SSD -7.6872458E-06 
    900476      8.7052805E-07 
    900476 SSD -8.2143282E-06 
    900477      1.5736693E-06 
    900477 SSD -8.6937549E-06 
    900478      2.2888705E-06 
    900478 SSD -9.1388797E-06 
    900479      2.9225152E-06 
    900479 SSD -9.5154250E-06 
    900480      3.4436531E-06 
    900480 SSD -9.8386884E-06 
    900481     -1.0443357E-06 
    900481 SSD -6.6839198E-06 
    900482     -4.5711523E-07 
    900482 SSD -7.2183303E-06 
    900483      1.7248325E-07 
    900483 SSD -7.7215353E-06 
    900484      7.8554720E-07 
    900484 SSD -8.1720829E-06 
    900485      1.3360858E-06 
    900485 SSD -8.5439344E-06 
    900486      1.8116706E-06 
    900486 SSD -8.8569976E-06 
    900487     -5.7519969E-07 
    900487 SSD -7.0887694E-06 
    900488     -4.6185355E-07 
    900488 SSD -7.1789538E-06 
    900489      6.7499938E-08 
    900489 SSD -7.6208805E-06 
    900490     -1.0474692E-06 
    900490 SSD -6.6604287E-06 
    900491     -1.1128432E-06 
    900491 SSD -6.6092194E-06 
    900492     -1.1622704E-06 
    900492 SSD -6.5719111E-06 
    900493     -1.3616920E-07 
    900493 SSD -7.4482050E-06 
    900494     -8.2227951E-07 
    900494 SSD -6.8632815E-06 
    900495      5.7075274E-07 
    900495 SSD -7.9986406E-06 
    900496      1.0388861E-06 
    900496 SSD -8.3308139E-06 
    900497      2.5630088E-07 
    900497 SSD -7.7709340E-06 
    900498     -1.5852620E-06 
    900498 SSD -6.1311203E-06 
    900499     -1.6031553E-06 
    900499 SSD -6.1067492E-06 
    900500     -1.5045672E-06 
    900500 SSD -6.2234569E-06 
    900501     -1.7219392E-06 
    900501 SSD -5.9852527E-06 
    900502     -1.1406697E-06 
    900502 SSD -6.5781755E-06 
    900503     -1.6597327E-06 
    900503 SSD -6.0642514E-06 
    900504     -4.9452364E-07 
    900504 SSD -7.1648762E-06 
    900505      6.6774054E-07 
    900505 SSD -8.0729089E-06 
    900506     -9.2571754E-07 
    900506 SSD -6.7958632E-06 
    900507     -1.5228538E-06 
    900507 SSD -6.2002544E-06 
    900508     -1.4924149E-06 
    900508 SSD -6.2315352E-06 
    900509     -1.7362774E-06 
    900509 SSD -5.9810858E-06 
    900510     -1.2271943E-06 
    900510 SSD -6.4895274E-06 
    900511     -1.6046897E-06 
    900511 SSD -6.1349544E-06 
    900512      4.5106482E-06 
    900512 SSD -1.0389555E-05 
    900513      4.0870703E-06 
    900513 SSD -1.0179694E-05 
    900514      3.5726352E-06 
    900514 SSD -9.8959754E-06 
    900515      2.9594909E-06 
    900515 SSD -9.5344180E-06 
    900516     -1.5952316E-06 
    900516 SSD -6.1374520E-06 
    900517     -1.0437118E-06 
    900517 SSD -6.6941675E-06 
    900518     -4.2223675E-07 
    900518 SSD -7.2458112E-06 
    900519      2.3409689E-07 
    900519 SSD -7.7756906E-06 
    900520      9.0316406E-07 
    900520 SSD -8.2474419E-06 
    900521      1.5160985E-06 
    900521 SSD -8.6665849E-06 
    900522      2.0570455E-06 
    900522 SSD -9.0272294E-06 
    900523      2.5455951E-06 
    900523 SSD -9.3071474E-06 
    900524     -1.6100542E-06 
    900524 SSD -6.1217212E-06 
    900525     -1.6311707E-06 
    900525 SSD -6.1033003E-06 
    900526     -1.6551390E-06 
    900526 SSD -6.0722987E-06 
    900527     -1.6845409E-06 
    900527 SSD -6.0227564E-06 
    900528     -1.2982488E-06 
    900528 SSD -6.4393944E-06 
    900529     -7.1962418E-07 
    900529 SSD -6.9528807E-06 
    900530     -1.1732203E-07 
    900530 SSD -7.4809019E-06 
    900531      5.6590595E-07 
    900531 SSD -8.0048154E-06 
    900532      1.2968341E-06 
    900532 SSD -8.5124364E-06 
    900533      2.0179054E-06 
    900533 SSD -8.9819086E-06 
    900534      2.7099788E-06 
    900534 SSD -9.4121965E-06 
    900535      3.3562616E-06 
    900535 SSD -9.7821087E-06 
    900536      3.9273098E-06 
    900536 SSD -1.0083157E-05 
    900537      4.3403991E-06 
    900537 SSD -1.0311792E-05 
    900538      4.2494910E-06 
    900538 SSD -1.0262566E-05 
    900539      3.7949041E-06 
    900539 SSD -1.0018551E-05 
    900540      3.2425633E-06 
    900540 SSD -9.7023824E-06 
    900541     -1.0385113E-06 
    900541 SSD -6.6888322E-06 
    900542     -4.1373734E-07 
    900542 SSD -7.2474908E-06 
    900543      2.5426357E-07 
    900543 SSD -7.7854016E-06 
    900544      9.3656454E-07 
    900544 SSD -8.2849489E-06 
    900545      1.6237476E-06 
    900545 SSD -8.7426242E-06 
    900546      2.2471846E-06 
    900546 SSD -9.1282383E-06 
    900547      2.7670287E-06 
    900547 SSD -9.4496340E-06 
    900548     -1.1920517E-06 
    900548 SSD -6.5341278E-06 
    900549     -5.9599777E-07 
    900549 SSD -7.0867758E-06 
    900550      5.5347340E-08 
    900550 SSD -7.6263676E-06 
    900551      7.4368487E-07 
    900551 SSD -8.1474019E-06 
    900552      1.4856993E-06 
    900552 SSD -8.6551941E-06 
    900553      2.2139539E-06 
    900553 SSD -9.1125986E-06 
    900554      2.9186770E-06 
    900554 SSD -9.5138679E-06 
    900555      3.4541298E-06 
    900555 SSD -9.8503822E-06 
    900556      3.9797929E-06 
    900556 SSD -1.0118429E-05 
    900557     -1.0819899E-06 
    900557 SSD -6.6562090E-06 
    900558     -1.1192797E-06 
    900558 SSD -6.6148892E-06 
    900559     -4.4544046E-07 
    900559 SSD -7.2170432E-06 
    900560      2.2445318E-07 
    900560 SSD -7.7659777E-06 
    900561      9.5717856E-07 
    900561 SSD -8.2884631E-06 
    900562      1.6569067E-06 
    900562 SSD -8.7578411E-06 
    900563      2.3142301E-06 
    900563 SSD -9.1762917E-06 
    900564      2.9188094E-06 
    900564 SSD -9.5273175E-06 
    900565      3.3807177E-06 
    900565 SSD -9.8131797E-06 
    900566      3.9293494E-06 
    900566 SSD -1.0093909E-05 
    900567      3.5153003E-06 
    900567 SSD -9.8589370E-06 
    900568      2.9689865E-06 
    900568 SSD -9.5526989E-06 
    900569      2.3045546E-06 
    900569 SSD -9.1758950E-06 
    900570      1.5925235E-06 
    900570 SSD -8.7302862E-06 
    900571      8.4790006E-07 
    900571 SSD -8.2417922E-06 
    900572      1.8731167E-07 
    900572 SSD -7.7223726E-06 
    900573     -4.8495545E-07 
    900573 SSD -7.1729107E-06 
    900574     -6.1137099E-07 
    900574 SSD -7.0822948E-06 
    900575      7.5379446E-08 
    900575 SSD -7.6431440E-06 
    900576     -5.1431121E-07 
    900576 SSD -7.1616981E-06 
    900577      5.9608111E-07 
    900577 SSD -8.0300778E-06 
    900578     -1.0822643E-07 
    900578 SSD -7.4989712E-06 
    900579     -7.2717900E-07 
    900579 SSD -6.9896094E-06 
    900580     -1.1271448E-06 
    900580 SSD -6.6025073E-06 
    900581     -1.1829918E-06 
    900581 SSD -6.5461272E-06 
    900582     -1.0895905E-06 
    900582 SSD -6.6500232E-06 
    900583     -1.6259479E-06 
    900583 SSD -6.1180434E-06 
    900584     -1.6437450E-06 
    900584 SSD -6.0977454E-06 
    900585      1.0253629E-06 
    900585 SSD -8.3448167E-06 
    900586      2.6714827E-07 
    900586 SSD -7.7956860E-06 
    900587     -1.1322083E-06 
    900587 SSD -6.6021327E-06 
    900588     -1.5829555E-06 
    900588 SSD -6.1316858E-06 
    900589     -1.6725427E-06 
    900589 SSD -6.0747400E-06 
    900590     -4.3748117E-07 
    900590 SSD -7.2151329E-06 
    900591     -1.6606396E-06 
    900591 SSD -6.0712458E-06 
    900592     -1.1270298E-07 
    900592 SSD -7.4680158E-06 
    900593      1.4343205E-06 
    900593 SSD -8.6155909E-06 
    900594      4.7875084E-06 
    900594 SSD -1.0518709E-05 
    900595      4.6543162E-06 
    900595 SSD -1.0459337E-05 
    900596      4.5466191E-06 
    900596 SSD -1.0425805E-05 
    900597      4.3480623E-06 
    900597 SSD -1.0308768E-05 
    900598     -2.1169361E-06 
    900598 SSD -5.5713846E-06 
    900599     -2.5077537E-06 
    900599 SSD -5.0968412E-06 
    900600     -2.8261699E-06 
    900600 SSD -4.6537266E-06 
    900601     -3.1043421E-06 
    900601 SSD -4.2331152E-06 
    900602     -3.3386008E-06 
    900602 SSD -3.8421716E-06 
    900603     -3.5320203E-06 
    900603 SSD -3.4861263E-06 
    900604     -3.6833465E-06 
    900604 SSD -3.1788768E-06 
    900605     -3.7980519E-06 
    900605 SSD -2.9142946E-06 
    900606     -3.8947728E-06 
    900606 SSD -2.7010367E-06 
    900607     -4.2724157E-06 
    900607 SSD -1.6310406E-06 
    900608     -4.2637707E-06 
    900608 SSD -1.6604850E-06 
    900609     -4.2339433E-06 
    900609 SSD -1.7456444E-06 
    900610     -4.1926504E-06 
    900610 SSD -1.8834620E-06 
    900611     -4.1375498E-06 
    900611 SSD -2.0614391E-06 
    900612     -4.0537738E-06 
    900612 SSD -2.2911874E-06 
    900613     -3.9490668E-06 
    900613 SSD -2.5707245E-06 
    900614     -3.8086813E-06 
    900614 SSD -2.8944222E-06 
    900615     -3.6312222E-06 
    900615 SSD -3.2668027E-06 
    900616     -3.4249634E-06 
    900616 SSD -3.6799367E-06 
    900617     -3.1509304E-06 
    900617 SSD -4.1354716E-06 
    900618     -2.8300110E-06 
    900618 SSD -4.6297608E-06 
    900619     -2.1106019E-06 
    900619 SSD -5.5713262E-06 
    900620     -2.0972429E-06 
    900620 SSD -5.5729232E-06 
    900621     -2.1113063E-06 
    900621 SSD -5.5744664E-06 
    900622     -2.1183783E-06 
    900622 SSD -5.5693043E-06 
    900623     -2.1152707E-06 
    900623 SSD -5.5727560E-06 
    900624     -3.9592885E-06 
    900624 SSD -2.5461006E-06 
    900625     -3.8632409E-06 
    900625 SSD -2.7806420E-06 
    900626     -3.7398037E-06 
    900626 SSD -3.0599325E-06 
    900627     -3.5827497E-06 
    900627 SSD -3.3839318E-06 
    900628     -3.3944823E-06 
    900628 SSD -3.7447450E-06 
    900629     -3.1632940E-06 
    900629 SSD -4.1435943E-06 
    900630     -2.8704539E-06 
    900630 SSD -4.5813704E-06 
    900631     -2.5308389E-06 
    900631 SSD -5.0567941E-06 
    900632     -4.0688804E-06 
    900632 SSD -2.2502856E-06 
    900633     -4.1559301E-06 
    900633 SSD -2.0089854E-06 
    900634     -4.2104520E-06 
    900634 SSD -1.8281880E-06 
    900635     -4.2538500E-06 
    900635 SSD -1.7009390E-06 
    900636     -4.2485595E-06 
    900636 SSD -1.7158703E-06 
    900637     -4.2144786E-06 
    900637 SSD -1.8288603E-06 
    900638     -4.1593165E-06 
    900638 SSD -1.9867524E-06 
    900639     -4.0891677E-06 
    900639 SSD -2.1922244E-06 
    900640     -3.9979536E-06 
    900640 SSD -2.4454643E-06 
    900641     -3.8704825E-06 
    900641 SSD -2.7489487E-06 
    900642     -3.7211531E-06 
    900642 SSD -3.0994343E-06 
    900643     -3.5185586E-06 
    900643 SSD -3.4924216E-06 
    900644     -3.2800726E-06 
    900644 SSD -3.9267740E-06 
    900645     -2.9848658E-06 
    900645 SSD -4.4039647E-06 
    900646     -2.4952052E-06 
    900646 SSD -5.0951900E-06 
    900647     -2.5237839E-06 
    900647 SSD -5.0612462E-06 
    900648     -2.5399396E-06 
    900648 SSD -5.0507090E-06 
    900649     -4.0022511E-06 
    900649 SSD -2.4434655E-06 
    900650     -3.9053847E-06 
    900650 SSD -2.6884739E-06 
    900651     -3.7806596E-06 
    900651 SSD -2.9774967E-06 
    900652     -3.6239338E-06 
    900652 SSD -3.3093250E-06 
    900653     -3.4238750E-06 
    900653 SSD -3.6838586E-06 
    900654     -3.1830631E-06 
    900654 SSD -4.1010965E-06 
    900655     -2.8901903E-06 
    900655 SSD -4.5574853E-06 
    900656     -4.2207577E-06 
    900656 SSD -1.8070894E-06 
    900657     -4.1728318E-06 
    900657 SSD -1.9532248E-06 
    900658     -4.1133340E-06 
    900658 SSD -2.1413870E-06 
    900659     -4.0250778E-06 
    900659 SSD -2.3793906E-06 
    900660     -3.9121299E-06 
    900660 SSD -2.6617114E-06 
    900661     -3.7712021E-06 
    900661 SSD -2.9911100E-06 
    900662     -3.5910246E-06 
    900662 SSD -3.3664322E-06 
    900663     -3.3587384E-06 
    900663 SSD -3.7803096E-06 
    900664     -3.0918429E-06 
    900664 SSD -4.2300710E-06 
    900665     -4.1040897E-06 
    900665 SSD -2.1704801E-06 
    900666     -4.1698855E-06 
    900666 SSD -1.9609787E-06 
    900667     -4.0301125E-06 
    900667 SSD -2.3771446E-06 
    900668     -3.9230045E-06 
    900668 SSD -2.6351252E-06 
    900669     -3.7939562E-06 
    900669 SSD -2.9387800E-06 
    900670     -3.6252953E-06 
    900670 SSD -3.2852624E-06 
    900671     -3.4337562E-06 
    900671 SSD -3.6705883E-06 
    900672     -3.1845494E-06 
    900672 SSD -4.0950757E-06 
    900673     -2.8770192E-06 
    900673 SSD -4.5622761E-06 
    900674     -2.8617402E-06 
    900674 SSD -4.5993514E-06 
    900675     -3.1568858E-06 
    900675 SSD -4.1373627E-06 
    900676     -3.4125979E-06 
    900676 SSD -3.6990526E-06 
    900677     -3.6253263E-06 
    900677 SSD -3.2968598E-06 
    900678     -3.7923425E-06 
    900678 SSD -2.9418724E-06 
    900679     -3.9309526E-06 
    900679 SSD -2.6246694E-06 
    900680     -4.0292223E-06 
    900680 SSD -2.3576295E-06 
    900681     -4.1158343E-06 
    900681 SSD -2.1363558E-06 
    900682     -2.8735111E-06 
    900682 SSD -4.5528106E-06 
    900683     -3.1731577E-06 
    900683 SSD -4.0879816E-06 
    900684     -3.4252683E-06 
    900684 SSD -3.6769114E-06 
    900685     -3.6040959E-06 
    900685 SSD -3.3290142E-06 
    900686     -3.7281569E-06 
    900686 SSD -3.0558350E-06 
    900687     -3.8321878E-06 
    900687 SSD -2.8399521E-06 
    900688     -3.0536542E-06 
    900688 SSD -4.2984032E-06 
    900689     -3.0792447E-06 
    900689 SSD -4.2579602E-06 
    900690     -3.3113476E-06 
    900690 SSD -3.8792197E-06 
    900691     -2.8071808E-06 
    900691 SSD -4.6769387E-06 
    900692     -2.7707750E-06 
    900692 SSD -4.7064960E-06 
    900693     -2.7698084E-06 
    900693 SSD -4.7193013E-06 
    900694     -3.2327921E-06 
    900694 SSD -3.9918942E-06 
    900695     -2.9346145E-06 
    900695 SSD -4.4658414E-06 
    900696     -3.4872492E-06 
    900696 SSD -3.5614916E-06 
    900697     -3.6211589E-06 
    900697 SSD -3.2862910E-06 
    900698     -3.4009750E-06 
    900698 SSD -3.7099724E-06 
    900699     -2.4890779E-06 
    900699 SSD -5.1113889E-06 
    900700     -2.4711414E-06 
    900700 SSD -5.1324727E-06 
    900701     -2.5630596E-06 
    900701 SSD -5.0161337E-06 
    900702     -2.4045554E-06 
    900702 SSD -5.2138053E-06 
    900703     -2.7544285E-06 
    900703 SSD -4.7264197E-06 
    900704     -2.4293088E-06 
    900704 SSD -5.1637315E-06 
    900705     -3.1227636E-06 
    900705 SSD -4.1925473E-06 
    900706     -2.0996428E-06 
    900706 SSD -5.5716195E-06 
    900707     -2.1010098E-06 
    900707 SSD -5.5793942E-06 
    900708     -2.0969812E-06 
    900708 SSD -5.5784705E-06 
    900709     -2.0996332E-06 
    900709 SSD -5.5789469E-06 
    900710     -2.1104013E-06 
    900710 SSD -5.5780763E-06 
    900711     -3.5412632E-06 
    900711 SSD -3.4562495E-06 
    900712     -2.9095098E-06 
    900712 SSD -4.5149260E-06 
    900713     -2.5261996E-06 
    900713 SSD -5.0310302E-06 
    900714     -2.0882935E-06 
    900714 SSD -5.5812137E-06 
    900715     -2.0906045E-06 
    900715 SSD -5.5815306E-06 
    900716     -2.4225726E-06 
    900716 SSD -5.1702404E-06 
    900717     -2.6259203E-06 
    900717 SSD -4.9332839E-06 
    900718     -2.4345191E-06 
    900718 SSD -5.1786925E-06 
    900719     -2.7924628E-06 
    900719 SSD -4.6939526E-06 
    900720     -2.5152074E-06 
    900720 SSD -5.0504285E-06 
    900721     -2.0838358E-06 
    900721 SSD -5.5818873E-06 
    900722     -2.0896009E-06 
    900722 SSD -5.5821245E-06 
    900723     -2.0784334E-06 
    900723 SSD -5.5804602E-06 
    900724     -2.0829880E-06 
    900724 SSD -5.5805340E-06 
    900725     -2.0863763E-06 
    900725 SSD -5.5821725E-06 
    900726     -2.0902259E-06 
    900726 SSD -5.5767447E-06 
    900727     -2.1025046E-06 
    900727 SSD -5.5702679E-06 
    900728     -2.4738636E-06 
    900728 SSD -5.1069085E-06 
    900729     -2.9101422E-06 
    900729 SSD -4.5089210E-06 
    900730     -3.2009490E-06 
    900730 SSD -4.0406251E-06 
    900731     -3.4560580E-06 
    900731 SSD -3.6009784E-06 
    900732     -3.6762340E-06 
    900732 SSD -3.1995526E-06 
    900733     -3.8316384E-06 
    900733 SSD -2.8356396E-06 
    900734     -3.9750374E-06 
    900734 SSD -2.5116911E-06 
    900735     -4.0734350E-06 
    900735 SSD -2.2399986E-06 
    900736     -4.1526120E-06 
    900736 SSD -2.0132153E-06 
    900737     -4.2081564E-06 
    900737 SSD -1.8404641E-06 
    900738     -4.2490173E-06 
    900738 SSD -1.7190376E-06 
    900739     -4.2328898E-06 
    900739 SSD -1.7473042E-06 
    900740     -4.1990813E-06 
    900740 SSD -1.8931854E-06 
    900741     -4.1242143E-06 
    900741 SSD -2.1011433E-06 
    900742     -4.0256634E-06 
    900742 SSD -2.3721343E-06 
    900743     -2.5165879E-06 
    900743 SSD -5.0465118E-06 
    900744     -2.8940942E-06 
    900744 SSD -4.5324022E-06 
    900745     -3.2002918E-06 
    900745 SSD -4.0578892E-06 
    900746     -3.4426232E-06 
    900746 SSD -3.6290536E-06 
    900747     -3.6380284E-06 
    900747 SSD -3.2582934E-06 
    900748     -3.7860647E-06 
    900748 SSD -2.9425508E-06 
    900749     -3.8981425E-06 
    900749 SSD -2.6947743E-06 
    900750     -3.9743977E-06 
    900750 SSD -2.5103023E-06 
    900751     -2.5217980E-06 
    900751 SSD -5.0507633E-06 
    900752     -2.4969634E-06 
    900752 SSD -5.0698250E-06 
    900753     -2.4792170E-06 
    900753 SSD -5.0985041E-06 
    900754     -2.4388588E-06 
    900754 SSD -5.1405333E-06 
    900755     -2.7470108E-06 
    900755 SSD -4.7478140E-06 
    900756     -3.0462995E-06 
    900756 SSD -4.2895293E-06 
    900757     -3.3256510E-06 
    900757 SSD -3.8448012E-06 
    900758     -3.5496379E-06 
    900758 SSD -3.4263583E-06 
    900759     -3.7497987E-06 
    900759 SSD -3.0367525E-06 
    900760     -3.8956102E-06 
    900760 SSD -2.6924342E-06 
    900761     -4.0134559E-06 
    900761 SSD -2.3922694E-06 
    900762     -4.1080639E-06 
    900762 SSD -2.1397901E-06 
    900763     -4.1803344E-06 
    900763 SSD -1.9372577E-06 
    900764     -4.2204172E-06 
    900764 SSD -1.7908859E-06 
    900765     -4.2117456E-06 
    900765 SSD -1.8283284E-06 
    900766     -4.1583702E-06 
    900766 SSD -1.9961249E-06 
    900767     -4.0798969E-06 
    900767 SSD -2.2258963E-06 
    900768     -2.8837152E-06 
    900768 SSD -4.5369421E-06 
    900769     -3.2050242E-06 
    900769 SSD -4.0522327E-06 
    900770     -3.4655274E-06 
    900770 SSD -3.6072323E-06 
    900771     -3.6564044E-06 
    900771 SSD -3.2197211E-06 
    900772     -3.8157571E-06 
    900772 SSD -2.8817363E-06 
    900773     -3.9342089E-06 
    900773 SSD -2.6052752E-06 
    900774     -4.0146484E-06 
    900774 SSD -2.3891246E-06 
    900775     -2.8007856E-06 
    900775 SSD -4.6617778E-06 
    900776     -3.1194003E-06 
    900776 SSD -4.1813806E-06 
    900777     -3.3959586E-06 
    900777 SSD -3.7282421E-06 
    900778     -3.6078233E-06 
    900778 SSD -3.3126851E-06 
    900779     -3.7871569E-06 
    900779 SSD -2.9363490E-06 
    900780     -3.9409864E-06 
    900780 SSD -2.5997781E-06 
    900781     -4.0425226E-06 
    900781 SSD -2.3235773E-06 
    900782     -4.1241318E-06 
    900782 SSD -2.0914092E-06 
    900783     -4.1846603E-06 
    900783 SSD -1.9148833E-06 
    900784     -2.8701410E-06 
    900784 SSD -4.5572207E-06 
    900785     -2.8436013E-06 
    900785 SSD -4.5960666E-06 
    900786     -3.1847687E-06 
    900786 SSD -4.0697111E-06 
    900787     -3.4488004E-06 
    900787 SSD -3.6183346E-06 
    900788     -3.6573927E-06 
    900788 SSD -3.2146627E-06 
    900789     -3.8257245E-06 
    900789 SSD -2.8583411E-06 
    900790     -3.9536985E-06 
    900790 SSD -2.5604394E-06 
    900791     -4.0396691E-06 
    900791 SSD -2.3221074E-06 
    900792     -4.1121391E-06 
    900792 SSD -2.1354998E-06 
    900793     -4.1795314E-06 
    900793 SSD -1.9351921E-06 
    900794     -4.1216114E-06 
    900794 SSD -2.0926866E-06 
    900795     -4.0559348E-06 
    900795 SSD -2.2981779E-06 
    900796     -3.9527252E-06 
    900796 SSD -2.5593765E-06 
    900797     -3.8147833E-06 
    900797 SSD -2.8767975E-06 
    900798     -3.6422289E-06 
    900798 SSD -3.2439769E-06 
    900799     -3.4309914E-06 
    900799 SSD -3.6560155E-06 
    900800     -3.1728993E-06 
    900800 SSD -4.1100633E-06 
    900801     -3.0966059E-06 
    900801 SSD -4.2162961E-06 
    900802     -3.3715160E-06 
    900802 SSD -3.7617068E-06 
    900803     -3.1505250E-06 
    900803 SSD -4.1413824E-06 
    900804     -3.5315830E-06 
    900804 SSD -3.4599521E-06 
    900805     -3.2994099E-06 
    900805 SSD -3.8865435E-06 
    900806     -3.0495084E-06 
    900806 SSD -4.3066661E-06 
    900807     -2.8288926E-06 
    900807 SSD -4.6305831E-06 
    900808     -2.7871925E-06 
    900808 SSD -4.6835916E-06 
    900809     -2.8587759E-06 
    900809 SSD -4.5835078E-06 
    900810     -2.5091460E-06 
    900810 SSD -5.0650514E-06 
    900811     -2.4957044E-06 
    900811 SSD -5.0824974E-06 
    900812     -3.6543875E-06 
    900812 SSD -3.2271629E-06 
    900813     -3.4249091E-06 
    900813 SSD -3.6639559E-06 
    900814     -2.8176995E-06 
    900814 SSD -4.6429184E-06 
    900815     -2.4964362E-06 
    900815 SSD -5.0792606E-06 
    900816     -2.4785502E-06 
    900816 SSD -5.1116487E-06 
    900817     -3.1361778E-06 
    900817 SSD -4.1549101E-06 
    900818     -2.4631793E-06 
    900818 SSD -5.1183015E-06 
    900819     -3.2723102E-06 
    900819 SSD -3.9393338E-06 
    900820     -3.7332907E-06 
    900820 SSD -3.0453675E-06 
    900821     -2.0946086E-06 
    900821 SSD -5.5808642E-06 
    900822     -2.0797723E-06 
    900822 SSD -5.5778657E-06 
    900823     -2.0725741E-06 
    900823 SSD -5.5861382E-06 
    900824     -2.0974232E-06 
    900824 SSD -5.5784298E-06 
    900825     -2.0825305E-06 
    900825 SSD -5.5815504E-06 
    900826     -4.2627321E-06 
    900826 SSD -1.6591539E-06 
    900827     -4.2721393E-06 
    900827 SSD -1.6491758E-06 
    900828     -4.2511413E-06 
    900828 SSD -1.6911593E-06 
    900829     -4.2487298E-06 
    900829 SSD -1.7149446E-06 
    900830     -4.2331057E-06 
    900830 SSD -1.7902166E-06 

 MAXIMUM         4.8079E-06
 AT NODE            900199

 MINIMUM        -1.0546E-05
 AT NODE            900200


          INCREMENT NUMBER    2  AT FREQUENCY (CYCLES/TIME) =   510.00000    
  
  
  
  
                                       N O D E   O U T P U T
  
  
  
  
   THE FOLLOWING TABLE IS PRINTED FOR NODES BELONGING TO NODE SET POR
  
       NODE FOOT-  POR          
            NOTE
  
    900001      4.5469350E-06 
    900001 SSD -1.1522883E-05 
    900002      4.7619753E-06 
    900002 SSD -1.1651142E-05 
    900003      4.8580819E-06 
    900003 SSD -1.1706436E-05 
    900004      4.9952555E-06 
    900004 SSD -1.1784311E-05 
    900005      4.9989918E-06 
    900005 SSD -1.1774401E-05 
    900006      1.1476176E-06 
    900006 SSD -9.4321487E-06 
    900007     -5.4988366E-07 
    900007 SSD -8.1228452E-06 
    900008     -2.0859395E-06 
    900008 SSD -6.6065627E-06 
    900009     -8.5430592E-07 
    900009 SSD -7.8322678E-06 
    900010     -2.0741249E-06 
    900010 SSD -6.6062937E-06 
    900011     -2.0354512E-06 
    900011 SSD -6.6525004E-06 
    900012     -1.5536853E-06 
    900012 SSD -7.1858848E-06 
    900013     -7.7090063E-08 
    900013 SSD -8.5080999E-06 
    900014      7.9256716E-07 
    900014 SSD -9.1580681E-06 
    900015     -2.0230055E-06 
    900015 SSD -6.6502241E-06 
    900016     -1.9998824E-06 
    900016 SSD -6.6772640E-06 
    900017     -1.4383764E-06 
    900017 SSD -7.2781927E-06 
    900018     -1.5730960E-06 
    900018 SSD -7.1413025E-06 
    900019     -1.5063795E-06 
    900019 SSD -7.2103666E-06 
    900020     -1.0672566E-06 
    900020 SSD -7.6227723E-06 
    900021     -4.3576686E-07 
    900021 SSD -8.1991751E-06 
    900022      2.9932629E-07 
    900022 SSD -8.8067913E-06 
    900023     -8.4136040E-07 
    900023 SSD -7.8512290E-06 
    900024     -2.3061514E-07 
    900024 SSD -8.3767324E-06 
    900025     -9.6098847E-07 
    900025 SSD -7.7436301E-06 
    900026     -7.8289757E-07 
    900026 SSD -7.8944831E-06 
    900027     -2.4590687E-08 
    900027 SSD -8.5277127E-06 
    900028      7.4470042E-07 
    900028 SSD -9.1365488E-06 
    900029      1.5231675E-06 
    900029 SSD -9.7038655E-06 
    900030      2.2999342E-06 
    900030 SSD -1.0207869E-05 
    900031      3.0064183E-06 
    900031 SSD -1.0637971E-05 
    900032      3.5655253E-06 
    900032 SSD -1.0998691E-05 
    900033      4.0665592E-06 
    900033 SSD -1.1267813E-05 
    900034      3.4699667E-06 
    900034 SSD -1.0917646E-05 
    900035      2.9540029E-06 
    900035 SSD -1.0609834E-05 
    900036      2.2792751E-06 
    900036 SSD -1.0205186E-05 
    900037      1.5988150E-06 
    900037 SSD -9.7267271E-06 
    900038      8.1005362E-07 
    900038 SSD -9.1898527E-06 
    900039      2.6595037E-08 
    900039 SSD -8.5857442E-06 
    900040     -7.3291774E-07 
    900040 SSD -7.9552265E-06 
    900041     -1.4575415E-06 
    900041 SSD -7.2503803E-06 
    900042     -1.3935979E-06 
    900042 SSD -7.3095030E-06 
    900043      4.1314612E-06 
    900043 SSD -1.1298429E-05 
    900044      3.6121649E-06 
    900044 SSD -1.0988776E-05 
    900045      2.9359087E-06 
    900045 SSD -1.0609106E-05 
    900046      2.1913982E-06 
    900046 SSD -1.0137201E-05 
    900047      1.4027720E-06 
    900047 SSD -9.6084192E-06 
    900048      6.1461223E-07 
    900048 SSD -9.0331390E-06 
    900049     -1.6844814E-07 
    900049 SSD -8.4226080E-06 
    900050     -8.8795378E-07 
    900050 SSD -7.7994065E-06 
    900051     -1.5608658E-06 
    900051 SSD -7.1675028E-06 
    900052      2.7419228E-06 
    900052 SSD -1.0484976E-05 
    900053      2.2080324E-06 
    900053 SSD -1.0135426E-05 
    900054      1.5389183E-06 
    900054 SSD -9.6880855E-06 
    900055      7.9643936E-07 
    900055 SSD -9.1804994E-06 
    900056      3.4904839E-08 
    900056 SSD -8.5970611E-06 
    900057     -6.8105158E-07 
    900057 SSD -7.9831666E-06 
    900058     -1.3800016E-06 
    900058 SSD -7.3421050E-06 
    900059      3.1894159E-06 
    900059 SSD -1.0768082E-05 
    900060      3.8822137E-06 
    900060 SSD -1.1158787E-05 
    900061      4.4135899E-06 
    900061 SSD -1.1454664E-05 
    900062      4.5154259E-06 
    900062 SSD -1.1534213E-05 
    900063      4.0542476E-06 
    900063 SSD -1.1265111E-05 
    900064      3.4415232E-06 
    900064 SSD -1.0916360E-05 
    900065      2.7344618E-06 
    900065 SSD -1.0483399E-05 
    900066      1.9658568E-06 
    900066 SSD -9.9981583E-06 
    900067      1.1788634E-06 
    900067 SSD -9.4468029E-06 
    900068      3.8394891E-07 
    900068 SSD -8.8623166E-06 
    900069     -3.5365043E-07 
    900069 SSD -8.2568893E-06 
    900070     -1.0682779E-06 
    900070 SSD -7.6513468E-06 
    900071     -1.6801553E-06 
    900071 SSD -7.0472185E-06 
    900072     -2.0976603E-06 
    900072 SSD -6.5751681E-06 
    900073     -2.0544530E-06 
    900073 SSD -6.6266631E-06 
    900074     -1.9972027E-06 
    900074 SSD -6.6716395E-06 
    900075     -1.9887239E-06 
    900075 SSD -6.6907719E-06 
    900076      2.4093812E-06 
    900076 SSD -1.0286675E-05 
    900077      1.9634884E-06 
    900077 SSD -9.9891629E-06 
    900078      1.3973454E-06 
    900078 SSD -9.5933384E-06 
    900079      7.2027140E-07 
    900079 SSD -9.1164838E-06 
    900080     -1.7563421E-09 
    900080 SSD -8.5694783E-06 
    900081     -7.1698045E-07 
    900081 SSD -7.9691442E-06 
    900082     -1.3702982E-06 
    900082 SSD -7.3411953E-06 
    900083     -1.9942742E-06 
    900083 SSD -6.6995138E-06 
    900084      2.7812700E-06 
    900084 SSD -1.0515431E-05 
    900085      3.5618601E-06 
    900085 SSD -1.0989794E-05 
    900086      4.1737375E-06 
    900086 SSD -1.1349687E-05 
    900087      4.7008713E-06 
    900087 SSD -1.1613855E-05 
    900088      4.7693380E-06 
    900088 SSD -1.1658432E-05 
    900089      4.3846023E-06 
    900089 SSD -1.1439022E-05 
    900090      3.8542305E-06 
    900090 SSD -1.1135089E-05 
    900091      3.1588460E-06 
    900091 SSD -1.0741044E-05 
    900092      2.4081113E-06 
    900092 SSD -1.0288736E-05 
    900093      1.6007042E-06 
    900093 SSD -9.7605074E-06 
    900094      8.0845728E-07 
    900094 SSD -9.2027380E-06 
    900095      4.9649629E-08 
    900095 SSD -8.6077073E-06 
    900096     -6.7769901E-07 
    900096 SSD -7.9899013E-06 
    900097     -1.3609640E-06 
    900097 SSD -7.3540923E-06 
    900098     -2.0532693E-06 
    900098 SSD -6.6237177E-06 
    900099     -1.9941692E-06 
    900099 SSD -6.6942296E-06 
    900100     -1.6304756E-06 
    900100 SSD -7.1047722E-06 
    900101     -2.1808117E-06 
    900101 SSD -6.5116488E-06 
    900102     -1.8843995E-06 
    900102 SSD -6.8074609E-06 
    900103     -2.1313503E-06 
    900103 SSD -6.5342887E-06 
    900104     -1.9886709E-06 
    900104 SSD -6.7095870E-06 
    900105     -1.3609488E-06 
    900105 SSD -7.3645257E-06 
    900106      3.0287245E-07 
    900106 SSD -8.8115065E-06 
    900107     -8.8327170E-07 
    900107 SSD -7.8119336E-06 
    900108     -2.1162442E-06 
    900108 SSD -6.5924761E-06 
    900109     -1.5925084E-06 
    900109 SSD -7.1254537E-06 
    900110     -2.1723899E-06 
    900110 SSD -6.4955125E-06 
    900111     -1.9365080E-06 
    900111 SSD -6.7604873E-06 
    900112     -2.0690053E-06 
    900112 SSD -6.6370411E-06 
    900113     -2.0331055E-06 
    900113 SSD -6.6734474E-06 
    900114     -1.4123650E-07 
    900114 SSD -8.4648866E-06 
    900115      6.6694961E-07 
    900115 SSD -9.0770811E-06 
    900116      2.2260516E-07 
    900116 SSD -8.7728523E-06 
    900117     -1.2500686E-06 
    900117 SSD -7.4819017E-06 
    900118     -5.0853804E-07 
    900118 SSD -8.1410211E-06 
    900119     -1.5817351E-06 
    900119 SSD -7.1601163E-06 
    900120     -1.5194213E-06 
    900120 SSD -7.2212713E-06 
    900121     -1.4518095E-06 
    900121 SSD -7.2854897E-06 
    900122     -2.3401468E-07 
    900122 SSD -8.3720251E-06 
    900123     -8.3432819E-07 
    900123 SSD -7.8731553E-06 
    900124     -9.7169787E-07 
    900124 SSD -7.7555302E-06 
    900125      1.6025116E-06 
    900125 SSD -9.7552603E-06 
    900126      1.1445920E-06 
    900126 SSD -9.4236870E-06 
    900127      5.6899210E-07 
    900127 SSD -9.0052333E-06 
    900128     -8.0381769E-08 
    900128 SSD -8.4993904E-06 
    900129     -7.7071946E-07 
    900129 SSD -7.9232762E-06 
    900130     -1.3761610E-06 
    900130 SSD -7.3203253E-06 
    900131      3.5093563E-06 
    900131 SSD -1.0956238E-05 
    900132      2.8874230E-06 
    900132 SSD -1.0593520E-05 
    900133      2.1806921E-06 
    900133 SSD -1.0160387E-05 
    900134      1.4314986E-06 
    900134 SSD -9.6529874E-06 
    900135      6.6267852E-07 
    900135 SSD -9.0844316E-06 
    900136     -1.1992300E-07 
    900136 SSD -8.4824638E-06 
    900137     -8.3053928E-07 
    900137 SSD -7.8603926E-06 
    900138     -1.5210847E-06 
    900138 SSD -7.2224945E-06 
    900139     -1.4492326E-06 
    900139 SSD -7.2898225E-06 
    900140     -7.7258475E-07 
    900140 SSD -7.9389994E-06 
    900141     -3.9439638E-08 
    900141 SSD -8.5572079E-06 
    900142      7.1521271E-07 
    900142 SSD -9.1482644E-06 
    900143      1.5144507E-06 
    900143 SSD -9.6926116E-06 
    900144      2.2218856E-06 
    900144 SSD -1.0168716E-05 
    900145      2.8734956E-06 
    900145 SSD -1.0566745E-05 
    900146      4.0377063E-06 
    900146 SSD -1.1250488E-05 
    900147      3.4274529E-06 
    900147 SSD -1.0894544E-05 
    900148     -9.8989740E-07 
    900148 SSD -7.7190680E-06 
    900149     -2.7538520E-07 
    900149 SSD -8.3507027E-06 
    900150      4.9632197E-07 
    900150 SSD -8.9603475E-06 
    900151      1.3005957E-06 
    900151 SSD -9.5504476E-06 
    900152      2.0587395E-06 
    900152 SSD -1.0072023E-05 
    900153      2.8132934E-06 
    900153 SSD -1.0544501E-05 
    900154      3.5014491E-06 
    900154 SSD -1.0937087E-05 
    900155      4.0427283E-06 
    900155 SSD -1.1259049E-05 
    900156      4.4601394E-06 
    900156 SSD -1.1495990E-05 
    900157     -1.4147632E-06 
    900157 SSD -7.3207384E-06 
    900158     -7.4919764E-07 
    900158 SSD -7.9640849E-06 
    900159      3.9233114E-09 
    900159 SSD -8.5798531E-06 
    900160      7.4329810E-07 
    900160 SSD -9.1570866E-06 
    900161      1.4716475E-06 
    900161 SSD -9.6647748E-06 
    900162      2.1166648E-06 
    900162 SSD -1.0094979E-05 
[...]
    900519      8.4302259E-05 
    900519 SSD  2.2133393E-05 
    900520      8.7081035E-05 
    900520 SSD  3.5624686E-05 
    900521      8.9276801E-05 
    900521 SSD  4.8099731E-05 
    900522      9.1039195E-05 
    900522 SSD  5.9413175E-05 
    900523      9.0639986E-05 
    900523 SSD  6.8949536E-05 
    900524      6.3293627E-05 
    900524 SSD -1.4231426E-05 
    900525      6.3097814E-05 
    900525 SSD -1.4629937E-05 
    900526      6.2460994E-05 
    900526 SSD -1.5089829E-05 
    900527      6.1317203E-05 
    900527 SSD -1.5482160E-05 
    900528      6.8151310E-05 
    900528 SSD -8.3361882E-06 
    900529      7.4463617E-05 
    900529 SSD  2.9857317E-06 
    900530      8.0907852E-05 
    900530 SSD  1.4976216E-05 
    900531      8.5453278E-05 
    900531 SSD  2.8773725E-05 
    900532      8.8362887E-05 
    900532 SSD  4.3490666E-05 
    900533      9.0088226E-05 
    900533 SSD  5.8058518E-05 
    900534      9.1081043E-05 
    900534 SSD  7.2249181E-05 
    900535      9.0728736E-05 
    900535 SSD  8.5267272E-05 
    900536      8.9316924E-05 
    900536 SSD  9.6534076E-05 
    900537      8.8801740E-05 
    900537 SSD  1.0509848E-04 
    900538      8.8949579E-05 
    900538 SSD  1.0331379E-04 
    900539      8.9831268E-05 
    900539 SSD  9.4049768E-05 
    900540      9.0060642E-05 
    900540 SSD  8.2805055E-05 
    900541      7.1708290E-05 
    900541 SSD -3.3299310E-06 
    900542      7.8761881E-05 
    900542 SSD  9.0343863E-06 
    900543      8.4150973E-05 
    900543 SSD  2.2475639E-05 
    900544      8.7804836E-05 
    900544 SSD  3.6381377E-05 
    900545      8.9832106E-05 
    900545 SSD  5.0392626E-05 
    900546      9.0500771E-05 
    900546 SSD  6.2911785E-05 
    900547      9.1159275E-05 
    900547 SSD  7.3657251E-05 
    900548      6.9329959E-05 
    900548 SSD -6.2788343E-06 
    900549      7.6765443E-05 
    900549 SSD  5.3634443E-06 
    900550      8.2579322E-05 
    900550 SSD  1.8411935E-05 
    900551      8.6952450E-05 
    900551 SSD  3.2405763E-05 
    900552      8.9720931E-05 
    900552 SSD  4.7506680E-05 
    900553      9.0814947E-05 
    900553 SSD  6.2081674E-05 
    900554      9.0201698E-05 
    900554 SSD  7.6033498E-05 
    900555      9.1158219E-05 
    900555 SSD  8.7618199E-05 
    900556      8.9482675E-05 
    900556 SSD  9.7823998E-05 
    900557      7.1445005E-05 
    900557 SSD -4.2300300E-06 
    900558      7.0757644E-05 
    900558 SSD -4.8542426E-06 
    900559      7.8272023E-05 
    900559 SSD  8.3181869E-06 
    900560      8.4070943E-05 
    900560 SSD  2.1828687E-05 
    900561      8.7507974E-05 
    900561 SSD  3.6612559E-05 
    900562      8.9646084E-05 
    900562 SSD  5.0818357E-05 
    900563      9.0897185E-05 
    900563 SSD  6.4336463E-05 
    900564      9.0680728E-05 
    900564 SSD  7.6457144E-05 
    900565      9.1394731E-05 
    900565 SSD  8.6320444E-05 
    900566      8.9665903E-05 
    900566 SSD  9.6943494E-05 
    900567      8.9961013E-05 
    900567 SSD  8.8324133E-05 
    900568      9.0592378E-05 
    900568 SSD  7.7310867E-05 
    900569      9.1239977E-05 
    900569 SSD  6.4100402E-05 
    900570      9.0170927E-05 
    900570 SSD  4.9731431E-05 
    900571      8.8292621E-05 
    900571 SSD  3.4693515E-05 
    900572      8.3285050E-05 
    900572 SSD  2.1045541E-05 
    900573      7.7538648E-05 
    900573 SSD  7.5454572E-06 
    900574      7.6939501E-05 
    900574 SSD  5.1301398E-06 
    900575      8.2819806E-05 
    900575 SSD  1.8916292E-05 
    900576      7.7764099E-05 
    900576 SSD  7.0305224E-06 
    900577      8.5745127E-05 
    900577 SSD  2.9512028E-05 
    900578      8.1401512E-05 
    900578 SSD  1.5258310E-05 
    900579      7.6066368E-05 
    900579 SSD  2.8789697E-06 
    900580      7.0485145E-05 
    900580 SSD -4.9738646E-06 
    900581      6.9627055E-05 
    900581 SSD -6.0263252E-06 
    900582      7.1382493E-05 
    900582 SSD -4.3381062E-06 
    900583      6.3528611E-05 
    900583 SSD -1.4573695E-05 
    900584      6.3144771E-05 
    900584 SSD -1.4943229E-05 
    900585      8.8092163E-05 
    900585 SSD  3.8360136E-05 
    900586      8.4238566E-05 
    900586 SSD  2.3055098E-05 
    900587      7.0588009E-05 
    900587 SSD -5.0100289E-06 
    900588      6.3096354E-05 
    900588 SSD -1.3519805E-05 
    900589      6.2911695E-05 
    900589 SSD -1.5434970E-05 
    900590      7.8114845E-05 
    900590 SSD  8.7267548E-06 
    900591      6.2565862E-05 
    900591 SSD -1.5160595E-05 
    900592      8.0243954E-05 
    900592 SSD  1.5207709E-05 
    900593      8.9162741E-05 
    900593 SSD  4.6606951E-05 
    900594      8.6576037E-05 
    900594 SSD  1.1337911E-04 
    900595      8.7328590E-05 
    900595 SSD  1.1088132E-04 
    900596      8.8594904E-05 
    900596 SSD  1.0942128E-04 
    900597      8.8443812E-05 
    900597 SSD  1.0509537E-04 
    900598      5.4214630E-05 
    900598 SSD -2.3617013E-05 
    900599      4.5501147E-05 
    900599 SSD -3.0262717E-05 
    900600      3.6611241E-05 
    900600 SSD -3.4954126E-05 
    900601      2.7863749E-05 
    900601 SSD -3.8510835E-05 
    900602      1.9403059E-05 
    900602 SSD -4.0954781E-05 
    900603      1.1583834E-05 
    900603 SSD -4.2381540E-05 
    900604      4.7011823E-06 
    900604 SSD -4.2988385E-05 
    900605     -1.2021128E-06 
    900605 SSD -4.2898689E-05 
    900606     -6.0715813E-06 
    900606 SSD -4.2933599E-05 
    900607     -3.0067655E-05 
    900607 SSD -3.8883148E-05 
    900608     -2.9387539E-05 
    900608 SSD -3.9083576E-05 
    900609     -2.7367582E-05 
    900609 SSD -3.9452355E-05 
    900610     -2.4347810E-05 
    900610 SSD -4.0278471E-05 
    900611     -2.0414046E-05 
    900611 SSD -4.1304334E-05 
    900612     -1.5168888E-05 
    900612 SSD -4.2110034E-05 
    900613     -8.9422471E-06 
    900613 SSD -4.2910349E-05 
    900614     -1.5842456E-06 
    900614 SSD -4.3056745E-05 
    900615      6.7976075E-06 
    900615 SSD -4.2553324E-05 
    900616      1.5915306E-05 
    900616 SSD -4.1576776E-05 
    900617      2.5785169E-05 
    900617 SSD -3.8687005E-05 
    900618      3.6056872E-05 
    900618 SSD -3.4705711E-05 
    900619      5.4128729E-05 
    900619 SSD -2.3387502E-05 
    900620      5.3949269E-05 
    900620 SSD -2.3095380E-05 
    900621      5.4256732E-05 
    900621 SSD -2.3525101E-05 
    900622      5.4184019E-05 
    900622 SSD -2.3685958E-05 
    900623      5.4233352E-05 
    900623 SSD -2.3644647E-05 
    900624     -9.5010768E-06 
    900624 SSD -4.2831482E-05 
    900625     -4.1836659E-06 
    900625 SSD -4.3179034E-05 
    900626      2.0719555E-06 
    900626 SSD -4.3188083E-05 
    900627      9.3188318E-06 
    900627 SSD -4.2622404E-05 
    900628      1.7337769E-05 
    900628 SSD -4.1489710E-05 
    900629      2.6012378E-05 
    900629 SSD -3.9313532E-05 
    900630      3.5125201E-05 
    900630 SSD -3.5468568E-05 
    900631      4.4628196E-05 
    900631 SSD -3.0534453E-05 
    900632     -1.6118681E-05 
    900632 SSD -4.1939427E-05 
    900633     -2.1592202E-05 
    900633 SSD -4.1082359E-05 
    900634     -2.5564603E-05 
    900634 SSD -4.0004796E-05 
    900635     -2.8562298E-05 
    900635 SSD -3.9395555E-05 
    900636     -2.8204786E-05 
    900636 SSD -3.9457873E-05 
    900637     -2.5694000E-05 
    900637 SSD -4.0137373E-05 
    900638     -2.2022119E-05 
    900638 SSD -4.0839377E-05 
    900639     -1.7419867E-05 
    900639 SSD -4.1742694E-05 
    900640     -1.1766139E-05 
    900640 SSD -4.2631933E-05 
    900641     -4.8247080E-06 
    900641 SSD -4.2973252E-05 
    900642      2.9630765E-06 
    900642 SSD -4.3182551E-05 
    900643      1.1806936E-05 
    900643 SSD -4.2048146E-05 
    900644      2.1310749E-05 
    900644 SSD -4.0171011E-05 
    900645      3.1422578E-05 
    900645 SSD -3.6863940E-05 
    900646      4.5286994E-05 
    900646 SSD -2.9899370E-05 
    900647      4.4743365E-05 
    900647 SSD -3.0340904E-05 
    900648      4.4564530E-05 
    900648 SSD -3.0784530E-05 
    900649     -1.1818584E-05 
    900649 SSD -4.2735383E-05 
    900650     -6.2897273E-06 
    900650 SSD -4.3241758E-05 
    900651      2.3545380E-07 
    900651 SSD -4.3400477E-05 
    900652      7.7101037E-06 
    900652 SSD -4.2991210E-05 
    900653      1.6038492E-05 
    900653 SSD -4.1618323E-05 
    900654      2.5103152E-05 
    900654 SSD -3.9358493E-05 
    900655      3.4655886E-05 
    900655 SSD -3.5815965E-05 
    900656     -2.6119026E-05 
    900656 SSD -4.0035121E-05 
    900657     -2.2818688E-05 
    900657 SSD -4.0765613E-05 
    900658     -1.8705202E-05 
    900658 SSD -4.1750316E-05 
    900659     -1.3310280E-05 
    900659 SSD -4.2505955E-05 
    900660     -6.8921368E-06 
    900660 SSD -4.3053988E-05 
    900661      5.2594411E-07 
    900661 SSD -4.3266729E-05 
    900662      8.9762555E-06 
    900662 SSD -4.2701045E-05 
    900663      1.8141218E-05 
    900663 SSD -4.0761402E-05 
    900664      2.7796591E-05 
    900664 SSD -3.8046287E-05 
    900665     -1.8043966E-05 
    900665 SSD -4.1909401E-05 
    900666     -2.2649107E-05 
    900666 SSD -4.0771622E-05 
    900667     -1.3376069E-05 
    900667 SSD -4.2672524E-05 
    900668     -7.4549197E-06 
    900668 SSD -4.3001711E-05 
    900669     -6.0129419E-07 
    900669 SSD -4.3223246E-05 
    900670      7.2138025E-06 
    900670 SSD -4.2639108E-05 
    900671      1.5745340E-05 
    900671 SSD -4.1766986E-05 
    900672      2.4962995E-05 
    900672 SSD -3.9354200E-05 
    900673      3.4706398E-05 
    900673 SSD -3.5426765E-05 
    900674      3.5556756E-05 
    900674 SSD -3.5446021E-05 
    900675      2.5849456E-05 
    900675 SSD -3.8985702E-05 
    900676      1.6352407E-05 
    900676 SSD -4.1454526E-05 
    900677      7.4745083E-06 
    900677 SSD -4.2866207E-05 
    900678     -5.7727953E-07 
    900678 SSD -4.3218723E-05 
    900679     -7.7336948E-06 
    900679 SSD -4.3136198E-05 
    900680     -1.3648327E-05 
    900680 SSD -4.2335961E-05 
    900681     -1.8823407E-05 
    900681 SSD -4.1759671E-05 
    900682      3.4329236E-05 
    900682 SSD -3.4875838E-05 
    900683      2.4720117E-05 
    900683 SSD -3.8570332E-05 
    900684      1.5861531E-05 
    900684 SSD -4.1371745E-05 
    900685      8.1615993E-06 
    900685 SSD -4.2437540E-05 
    900686      2.0878044E-06 
    900686 SSD -4.2589851E-05 
    900687     -2.8279747E-06 
    900687 SSD -4.2922174E-05 
    900688      2.9124710E-05 
    900688 SSD -3.7658210E-05 
    900689      2.8270718E-05 
    900689 SSD -3.7989221E-05 
    900690      2.0176180E-05 
    900690 SSD -4.0511875E-05 
    900691      3.7049627E-05 
    900691 SSD -3.4591714E-05 
    900692      3.7451364E-05 
    900692 SSD -3.3770449E-05 
    900693      3.7784059E-05 
    900693 SSD -3.3913573E-05 
    900694      2.2512723E-05 
    900694 SSD -3.9403869E-05 
    900695      3.2484776E-05 
    900695 SSD -3.5963279E-05 
    900696      1.3215252E-05 
    900696 SSD -4.1911167E-05 
    900697      7.1004422E-06 
    900697 SSD -4.2398349E-05 
    900698      1.6445457E-05 
    900698 SSD -4.1086226E-05 
    900699      4.5658321E-05 
    900699 SSD -2.9834158E-05 
    900700      4.6024714E-05 
    900700 SSD -2.9491837E-05 
    900701      4.3737734E-05 
    900701 SSD -3.1004793E-05 
    900702      4.7457931E-05 
    900702 SSD -2.8361350E-05 
    900703      3.7746271E-05 
    900703 SSD -3.3469411E-05 
    900704      4.6355602E-05 
    900704 SSD -2.8543133E-05 
    900705      2.6805767E-05 
    900705 SSD -3.8508797E-05 
    900706      5.3869433E-05 
    900706 SSD -2.3103033E-05 
    900707      5.4114471E-05 
    900707 SSD -2.3195246E-05 
    900708      5.4095590E-05 
    900708 SSD -2.3028040E-05 
    900709      5.4171767E-05 
    900709 SSD -2.3133214E-05 
    900710      5.4332768E-05 
    900710 SSD -2.3475638E-05 
    900711      1.0870151E-05 
    900711 SSD -4.2179658E-05 
    900712      3.3532873E-05 
    900712 SSD -3.5751678E-05 
    900713      4.3707938E-05 
    900713 SSD -2.9959397E-05 
    900714      5.3933702E-05 
    900714 SSD -2.2812747E-05 
    900715      5.4099990E-05 
    900715 SSD -2.2935428E-05 
    900716      4.6511522E-05 
    900716 SSD -2.8400100E-05 
    900717      4.2270657E-05 
    900717 SSD -3.2011012E-05 
    900718      4.6982441E-05 
    900718 SSD -2.8935570E-05 
    900719      3.7445359E-05 
    900719 SSD -3.4398680E-05 
    900720      4.4194150E-05 
    900720 SSD -2.9594872E-05 
    900721      5.3895269E-05 
    900721 SSD -2.2417569E-05 
    900722      5.4019078E-05 
    900722 SSD -2.2579523E-05 
    900723      5.3768993E-05 
    900723 SSD -2.2249933E-05 
    900724      5.3876348E-05 
    900724 SSD -2.2405915E-05 
    900725      5.4006852E-05 
    900725 SSD -2.2559846E-05 
    900726      5.3900372E-05 
    900726 SSD -2.2679140E-05 
    900727      5.3925903E-05 
    900727 SSD -2.3042114E-05 
    900728      4.5314367E-05 
    900728 SSD -2.9132898E-05 
    900729      3.3560693E-05 
    900729 SSD -3.5665612E-05 
    900730      2.3701134E-05 
    900730 SSD -3.8928001E-05 
    900731      1.4210051E-05 
    900731 SSD -4.1361594E-05 
    900732      5.2129520E-06 
    900732 SSD -4.3067463E-05 
    900733     -2.8329011E-06 
    900733 SSD -4.2875187E-05 
    900734     -1.0271637E-05 
    900734 SSD -4.2858041E-05 
    900735     -1.6337958E-05 
    900735 SSD -4.1939007E-05 
    900736     -2.1421022E-05 
    900736 SSD -4.1064088E-05 
    900737     -2.5304415E-05 
    900737 SSD -4.0157911E-05 
    900738     -2.8136618E-05 
    900738 SSD -3.9560237E-05 
    900739     -2.7306325E-05 
    900739 SSD -3.9449196E-05 
    900740     -2.4334760E-05 
    900740 SSD -4.0678492E-05 
    900741     -1.9498763E-05 
    900741 SSD -4.1476238E-05 
    900742     -1.3411631E-05 
    900742 SSD -4.2375050E-05 
    900743      4.4087760E-05 
    900743 SSD -2.9587527E-05 
    900744      3.4015797E-05 
    900744 SSD -3.5282751E-05 
    900745      2.4145660E-05 
    900745 SSD -3.9051405E-05 
    900746      1.4844478E-05 
    900746 SSD -4.1221056E-05 
    900747      6.5950570E-06 
    900747 SSD -4.2492739E-05 
    900748     -4.2123576E-07 
    900748 SSD -4.2888575E-05 
    900749     -6.1085892E-06 
    900749 SSD -4.2974971E-05 
    900750     -1.0331512E-05 
    900750 SSD -4.2728236E-05 
    900751      4.4297092E-05 
    900751 SSD -2.9803560E-05 
    900752      4.4526454E-05 
    900752 SSD -2.9266112E-05 
    900753      4.5115642E-05 
    900753 SSD -2.9121517E-05 
    900754      4.5807885E-05 
    900754 SSD -2.8415888E-05 
    900755      3.8398297E-05 
    900755 SSD -3.3406771E-05 
    900756      2.8938047E-05 
    900756 SSD -3.7182443E-05 
    900757      1.9498660E-05 
    900757 SSD -4.0423786E-05 
    900758      1.0308486E-05 
    900758 SSD -4.1999343E-05 
    900759      1.6114008E-06 
    900759 SSD -4.3138778E-05 
    900760     -6.0682245E-06 
    900760 SSD -4.2883764E-05 
    900761     -1.2852274E-05 
    900761 SSD -4.2247743E-05 
    900762     -1.8576277E-05 
    900762 SSD -4.1517659E-05 
    900763     -2.3194602E-05 
    900763 SSD -4.0777251E-05 
    900764     -2.6335819E-05 
    900764 SSD -3.9757666E-05 
    900765     -2.5622290E-05 
    900765 SSD -4.0026927E-05 
    900766     -2.1801236E-05 
    900766 SSD -4.0963136E-05 
    900767     -1.6727832E-05 
    900767 SSD -4.1887315E-05 
    900768      3.4036513E-05 
    900768 SSD -3.4980471E-05 
    900769      2.4000732E-05 
    900769 SSD -3.9133331E-05 
    900770      1.4361791E-05 
    900770 SSD -4.1721644E-05 
    900771      5.7756108E-06 
    900771 SSD -4.2546164E-05 
    900772     -1.8215711E-06 
    900772 SSD -4.2971678E-05 
    900773     -8.1150331E-06 
    900773 SSD -4.2807921E-05 
    900774     -1.2900871E-05 
    900774 SSD -4.2225471E-05 
    900775      3.6570182E-05 
    900775 SSD -3.4010396E-05 
    900776      2.6674458E-05 
    900776 SSD -3.8120161E-05 
    900777      1.6986821E-05 
    900777 SSD -4.1126461E-05 
    900778      7.8225076E-06 
    900778 SSD -4.2290082E-05 
    900779     -5.9499536E-07 
    900779 SSD -4.2809731E-05 
    900780     -8.2613372E-06 
    900780 SSD -4.3027292E-05 
    900781     -1.4471569E-05 
    900781 SSD -4.2143067E-05 
    900782     -1.9629810E-05 
    900782 SSD -4.1285157E-05 
    900783     -2.3663440E-05 
    900783 SSD -4.0522891E-05 
    900784      3.4472619E-05 
    900784 SSD -3.4802173E-05 
    900785      3.5255481E-05 
    900785 SSD -3.4485897E-05 
    900786      2.4339611E-05 
    900786 SSD -3.8679579E-05 
    900787      1.4602626E-05 
    900787 SSD -4.1273765E-05 
    900788      5.6539386E-06 
    900788 SSD -4.2496107E-05 
    900789     -2.3193461E-06 
    900789 SSD -4.2967836E-05 
    900790     -9.1225602E-06 
    900790 SSD -4.2801554E-05 
    900791     -1.4405914E-05 
    900791 SSD -4.2016673E-05 
    900792     -1.8765836E-05 
    900792 SSD -4.1540210E-05 
    900793     -2.3264645E-05 
    900793 SSD -4.0657059E-05 
    900794     -1.9576352E-05 
    900794 SSD -4.1196846E-05 
    900795     -1.5096600E-05 
    900795 SSD -4.2225199E-05 
    900796     -9.1428861E-06 
    900796 SSD -4.2756323E-05 
    900797     -1.9401300E-06 
    900797 SSD -4.2856695E-05 
    900798      6.3290502E-06 
    900798 SSD -4.2440234E-05 
    900799      1.5407629E-05 
    900799 SSD -4.1238474E-05 
    900800      2.5252086E-05 
    900800 SSD -3.8900408E-05 
    900801      2.7339699E-05 
    900801 SSD -3.7850507E-05 
    900802      1.7622635E-05 
    900802 SSD -4.0756248E-05 
    900803      2.5856717E-05 
    900803 SSD -3.8593228E-05 
    900804      1.0973488E-05 
    900804 SSD -4.1842793E-05 
    900805      2.0302620E-05 
    900805 SSD -4.0121126E-05 
    900806      2.9276708E-05 
    900806 SSD -3.7566134E-05 
    900807      3.5980311E-05 
    900807 SSD -3.4496951E-05 
    900808      3.6958599E-05 
    900808 SSD -3.3890424E-05 
    900809      3.5017089E-05 
    900809 SSD -3.4815412E-05 
    900810      4.4540658E-05 
    900810 SSD -2.9593110E-05 
    900811      4.4828292E-05 
    900811 SSD -2.9457596E-05 
    900812      5.7904240E-06 
    900812 SSD -4.2642240E-05 
    900813      1.5436909E-05 
    900813 SSD -4.1205068E-05 
    900814      3.6142185E-05 
    900814 SSD -3.4391656E-05 
    900815      4.4692252E-05 
    900815 SSD -2.9584125E-05 
    900816      4.5437975E-05 
    900816 SSD -2.9361110E-05 
    900817      2.6034889E-05 
    900817 SSD -3.8384529E-05 
    900818      4.5439340E-05 
    900818 SSD -2.8898352E-05 
    900819      2.1416181E-05 
    900819 SSD -3.9972678E-05 
    900820      1.8091757E-06 
    900820 SSD -4.2634150E-05 
    900821      5.4062607E-05 
    900821 SSD -2.2759075E-05 
    900822      5.3676195E-05 
    900822 SSD -2.2382692E-05 
    900823      5.3849035E-05 
    900823 SSD -2.2317708E-05 
    900824      5.3994516E-05 
    900824 SSD -2.3014385E-05 
    900825      5.3855145E-05 
    900825 SSD -2.2403917E-05 
    900826     -2.9387272E-05 
    900826 SSD -3.9016703E-05 
    900827     -2.9819763E-05 
    900827 SSD -3.9165306E-05 
    900828     -2.8586004E-05 
    900828 SSD -3.9171029E-05 
    900829     -2.8218864E-05 
    900829 SSD -3.9449316E-05 
    900830     -2.6719335E-05 
    900830 SSD -4.0159279E-05 

 MAXIMUM         1.1428E-04
 AT NODE            900200

 MINIMUM        -4.3400E-05
 AT NODE            900651


          THE ANALYSIS HAS BEEN COMPLETED



                              ANALYSIS COMPLETE
                              WITH      3 WARNING MESSAGES ON THE DAT FILE
                              AND      33 WARNING MESSAGES ON THE MSG FILE
                                       32 WARNINGS ARE FOR NEGATIVE EIGENVALUES



     JOB TIME SUMMARY
       USER TIME (SEC)      =     2.36E+02
       SYSTEM TIME (SEC)    =      4.6    
       TOTAL CPU TIME (SEC) =     2.40E+02
       WALLCLOCK TIME (SEC) =           71
