*NODE
    800001,  16.566149556029,  -26.445298565  ,  110.38281086212
    800002,  -29.85928161267,  150.444465725  ,  -7.661933973946
    800003,  -21.24366438236,  183.6511186187 ,  -1.565910156634
    800004,  -12.00981704015,  180.02504690997,  -22.14077558635
    800005,  -40.6737360921 ,  147.11219747861,  94.744706789269
    800006,  -63.6061629868 ,  133.52584055778,  86.895482129066
    800007,  -53.75225693618,  148.97262193309,  27.9154507267  
    800008,  -44.30021585252,  180.23817782744,  28.73549159166 
    800009,  -29.76514584789,  165.44774820204,  28.48440287107 
    800010,  -67.96217928145,  152.46896874809,  7.787091423033 
    800011,  -84.98352429945,  137.7457630024 ,  27.209914158223
    800012,  -52.95612994871,  174.56786914492,  52.30362875478 
    800013,  -43.56654784696,  157.29333313279,  51.554386797681
    800014,  -65.92569153925,  130.79200710481,  33.519205829567
    800015,  -9.26186681175 ,  209.4679023661 ,  21.267216246457
    800016,  -20.41582493813,  189.840465741  ,  31.170150975989
    800017,  -44.86712881773,  180.15751487199,  -0.222034120378
    800018,  -50.35348503235,  159.67879796287,  -8.200181901318
    800019,  -28.80882544447,  168.73477093097,  -16.22436159561
    800020,  -49.96971073941,  142.5568363813 ,  80.802820119979
** ... 6170 like lines cut
*ELEMENT,TYPE=ASI3D3,ELSET=asi
    841147,      1088,      1120,      1087
    841148,      1050,      1077,      1045
    841160,      1081,      1079,      1080
    841161,      1067,      1069,      1068
    841162,      1068,      1066,      1067
    841174,      1082,      1078,      1083
    841184,      1056,      1057,      1069
    841188,      1072,      1083,      1079
    841191,      1076,      1071,      1074
    841203,      1038,      1039,      1082
    841209,      1078,      1039,      1040
    841211,      1074,      1047,      1076
    841216,      1009,      1010,      1066
    841221,      1032,      1010,      1011
    841222,      1068,      1008,      1009
    841223,      1072,      1079,      1071
    841225,      1109,      1120,      1121
    841226,      1080,      1013,      1081
    841235,      1079,      1078,      1080
    841238,      1063,      1065,      1055
** ... 180 like lines cut
*ELEMENT,TYPE=AC3D4,ELSET=cavity
    800001,    800755,    800672,    804787,    800648
    800002,      4020,      4036,      4021,    806129
    800003,      7138,      7134,      7133,    805634
    800004,    805387,    805434,    801671,    805314
    800005,    900050,    900049,    805649,    806080
    800006,    900570,    900561,    900562,    805548
    800007,    802069,    804635,    804738,    803948
    800008,      1047,      1048,    800368,    806187
    800009,    805556,    806057,    803559,    805816
    800010,      1047,    800376,    800369,    806187
    800011,    806171,      4119,    805612,    805607
    800012,      7144,      7140,    806164,    806181
    800013,      1033,      1034,    806126,    806121
    800014,    806119,    805815,    805814,    805797
    800015,    806156,    805530,    801572,    805501
    800016,    806117,    806157,    806116,    805552
    800017,    806119,    806158,    805815,    805797
    800018,    802849,    802911,    800813,    800637
    800019,      4142,      4131,    805614,    805558
    800020,    900572,    805961,    805523,    805491
** ... 41123 like lines cut
*SOLID SECTION, ELSET=cavity, MATERIAL=air
*MATERIAL, NAME=air
*DENSITY
1.2200E-12,0.0       
*ACOUSTIC MEDIUM, BULK MODULUS
0.144     ,0.0       
** ----------------------------------------------------------------
*Interface,elset=asi
** ----------------------------------------------------------------
*Nset,nset=asi,elset=asi
** ----------------------------------------------------------------
*Submodel, absolute=1.e-3,global elset=cube_asi
 asi,
** ---------------------------------------------------------------- 