*NODE
      1001,  0.0            ,  100.0          ,  100.0          
      1002,  0.0            ,  100.0          ,  90.0           
      1003,  0.0            ,  100.0          ,  80.0           
      1004,  0.0            ,  100.0          ,  70.0           
      1005,  0.0            ,  100.0          ,  60.0           
      1006,  0.0            ,  100.0          ,  50.0           
      1007,  0.0            ,  100.0          ,  40.0           
      1008,  0.0            ,  100.0          ,  30.0           
      1009,  0.0            ,  100.0          ,  20.0           
      1010,  0.0            ,  100.0          ,  10.0           
      1011,  0.0            ,  100.0          ,  0.0            
      1012,  0.0            ,  0.0            ,  0.0            
      1013,  0.0            ,  0.0            ,  10.0           
      1014,  0.0            ,  0.0            ,  20.0           
      1015,  0.0            ,  0.0            ,  30.0           
      1016,  0.0            ,  0.0            ,  40.0           
      1017,  0.0            ,  0.0            ,  50.0           
      1018,  0.0            ,  0.0            ,  60.0           
      1019,  0.0            ,  0.0            ,  70.0           
      1020,  0.0            ,  0.0            ,  80.0           
** ... 582 like lines cut
*ELEMENT,TYPE=S3,ELSET=cube
      4001,      4032,      4029,      4037
      4002,      4033,      4032,      4036
      4003,      4036,      4037,      4021
      4004,      4037,      4028,      4022
      4005,      4034,      4033,      4038
      4006,      4038,      4036,      4020
      4007,      4035,      4034,      4039
      4008,      4039,      4038,      4019
      4009,      1004,      4035,      1005
      4010,      1005,      4039,      1006
      4011,      4007,      4006,      4040
      4012,      4006,      4005,      4042
      4013,      4032,      4033,      4043
      4014,      4043,      4041,      4042
      4015,      4029,      4032,      4030
      4016,      4030,      4043,      4031
      4017,      1001,      4009,      1002
      4018,      4009,      4008,      4044
      4019,      4008,      4007,      4045
      4020,      4035,      1004,      4046
** ... 1180 like lines cut
*SHELL SECTION, ELSET=cube, MATERIAL=steel
1.0       ,
*NSET, NSET=accn
      1045,
*NSET, NSET=cube_asi
      1001,      1002,      1003,      1004,      1005,      1006,      1007,      1008,
      1009,      1010,      1011,      1012,      1013,      1014,      1015,      1016,
      1017,      1018,      1019,      1020,      1021,      1022,      1023,      1024,
      1025,      1026,      1027,      1028,      1029,      1030,      1031,      1032,
      1033,      1034,      1035,      1036,      1037,      1038,      1039,      1040,
      1041,      1042,      1043,      1044,      1045,      1046,      1047,      1048,
      1049,      1050,      1051,      1052,      1053,      1054,      1055,      1056,
      1057,      1058,      1059,      1060,      1061,      1062,      1063,      1064,
      1065,      1066,      1067,      1068,      1069,      1070,      1071,      1072,
      1073,      1074,      1075,      1076,      1077,      1078,      1079,      1080,
      1081,      1082,      1083,      1084,      1085,      1086,      1087,      1088,
      1089,      1090,      1091,      1092,      1093,      1094,      1095,      1096,
      1097,      1098,      1099,      1100,      1101,      1102,      1103,      1104,
      1105,      1106,      1107,      1108,      1109,      1110,      1111,      1112,
      1113,      1114,      1115,      1116,      1117,      1118,      1119,      1120,
      1121,
*ELSET, ELSET=cube_asi
      1001,      1002,      1003,      1004,      1005,      1006,      1007,      1008,
      1009,      1010,      1011,      1012,      1013,      1014,      1015,      1016,
      1017,      1018,      1019,      1020,      1021,      1022,      1023,      1024,
      1025,      1026,      1027,      1028,      1029,      1030,      1031,      1032,
      1033,      1034,      1035,      1036,      1037,      1038,      1039,      1040,
      1041,      1042,      1043,      1044,      1045,      1046,      1047,      1048,
      1049,      1050,      1051,      1052,      1053,      1054,      1055,      1056,
      1057,      1058,      1059,      1060,      1061,      1062,      1063,      1064,
      1065,      1066,      1067,      1068,      1069,      1070,      1071,      1072,
      1073,      1074,      1075,      1076,      1077,      1078,      1079,      1080,
      1081,      1082,      1083,      1084,      1085,      1086,      1087,      1088,
      1089,      1090,      1091,      1092,      1093,      1094,      1095,      1096,
      1097,      1098,      1099,      1100,      1101,      1102,      1103,      1104,
      1105,      1106,      1107,      1108,      1109,      1110,      1111,      1112,
      1113,      1114,      1115,      1116,      1117,      1118,      1119,      1120,
      1121,      1122,      1123,      1124,      1125,      1126,      1127,      1128,
      1129,      1130,      1131,      1132,      1133,      1134,      1135,      1136,
      1137,      1138,      1139,      1140,      1141,      1142,      1143,      1144,
      1145,      1146,      1147,      1148,      1149,      1150,      1151,      1152,
      1153,      1154,      1155,      1156,      1157,      1158,      1159,      1160,
** ... 5 like lines cut
*ELSET, ELSET = _str_acou_SNEG
4001,4002,4003,4004,4005,4006,4007,4008,
4009,4010,4011,4012,4013,4014,4015,4016,
4017,4018,4019,4020,4021,4022,4023,4024,
4025,4026,4027,4028,4029,4030,4031,4032,
4033,4034,4035,4036,4037,4038,4039,4040,
4041,4042,4043,4044,4045,4046,4047,4048,
4049,4050,4051,4052,4053,4054,4055,4056,
4057,4058,4059,4060,4061,4062,4063,4064,
4065,4066,4067,4068,4069,4070,4071,4072,
4073,4074,4075,4076,4077,4078,4079,4080,
4081,4082,4083,4084,4085,4086,4087,4088,
4089,4090,4091,4092,4093,4094,4095,4096,
4097,4098,4099,4100,4101,4102,4103,4104,
4105,4106,4107,4108,4109,4110,4111,4112,
4113,4114,4115,4116,4117,4118,4119,4120,
4121,4122,4123,4124,4125,4126,4127,4128,
4129,4130,4131,4132,4133,4134,4135,4136,
4137,4138,4139,4140,4141,4142,4143,4144,
4145,4146,4147,4148,4149,4150,4151,4152,
4153,4154,4155,4156,4157,4158,4159,4160,
** ... 130 like lines cut
*Surface, NAME = str_acou, TYPE = ELEMENT
_str_acou_SNEG,SNEG
*MATERIAL, NAME=steel
*DENSITY
7.8500E-09,0.0       
*DAMPING, STRUCTURAL = 0.01      
*ELASTIC, TYPE = ISOTROPIC
210000.0  ,0.3       ,0.0       
