 Abaqus/Standard 2022.HF11                  DATE 21-Aug-2024 TIME 18:22:31
 SUMMARY OF JOB INFORMATION:
 STEP  INC ATT SEVERE EQUIL TOTAL  TOTAL      STEP       INC OF       DOF    IF
               DISCON ITERS ITERS  TIME/    TIME/LPF    TIME/LPF    MONITOR RIKS
               ITERS               FREQ
   1     1                        500.     
   1     2                        510.     
   1     3                        520.     
   1     4                        530.     
   1     5                        540.     
   1     6                        550.     
   1     7                        560.     
   1     8                        570.     
   1     9                        580.     
   1    10                        590.     
   1    11                        600.     
   1    12                        610.     
   1    13                        620.     
   1    14                        630.     
   1    15                        640.     
   1    16                        650.     
   1    17                        660.     
   1    18                        670.     
   1    19                        680.     
   1    20                        690.     
   1    21                        700.     
   1    22                        710.     
   1    23                        720.     
   1    24                        730.     
   1    25                        740.     
   1    26                        750.     
   1    27                        760.     
   1    28                        770.     
   1    29                        780.     
   1    30                        790.     
   1    31                        800.     
   1    32                        810.     
   1    33                        820.     
   1    34                        830.     
   1    35                        840.     
   1    36                        850.     
   1    37                        860.     
   1    38                        870.     
   1    39                        880.     
   1    40                        890.     
   1    41                        900.     
   1    42                        910.     
   1    43                        920.     
   1    44                        930.     
   1    45                        940.     
   1    46                        950.     
   1    47                        960.     
   1    48                        970.     
   1    49                        980.     
   1    50                        990.     
   1    51                        1.00e+03 
                          
 THE ANALYSIS HAS COMPLETED SUCCESSFULLY
